data_1
_audit_creation_date              0000-00-00
_audit_creation_method            'LanYouShi'
_symmetry_space_group_name_H-M    'P1'
_cell_length_a                    40.9138985
_cell_length_b                    49.8286018
_cell_length_c                    38.7648010
_cell_angle_alpha                 91.4829025
_cell_angle_beta                  88.8983002
_cell_angle_gamma                 90.5507965
loop_
_atom_site_label
_atom_site_type_symbol
_atom_site_fract_x
_atom_site_fract_y
_atom_site_fract_z
_atom_site_U_iso_or_equiv
_atom_site_adp_type
_atom_site_occupancy
        C1          C  0.1070315  0.1072314  0.3362705    0.00000       Uiso       1.00
        C2          C  0.2298173  0.5257754  0.0830940    0.00000       Uiso       1.00
        C3          C  0.2971705  0.8395521  0.3631755    0.00000       Uiso       1.00
        C4          C  0.2753638  0.8591729  0.3761101    0.00000       Uiso       1.00
        C5          C  0.2841498  0.8866724  0.3765455    0.00000       Uiso       1.00
        C6          C  0.3154674  0.8938967  0.3636123    0.00000       Uiso       1.00
        C7          C  0.3374723  0.8741677  0.3513067    0.00000       Uiso       1.00
        C8          C  0.3781257  0.6462684  0.2404888    0.00000       Uiso       1.00
        C9          C  0.3643262  0.6235690  0.2238006    0.00000       Uiso       1.00
       C10          C  0.3319375  0.6238616  0.2117066    0.00000       Uiso       1.00
       C11          C  0.3134788  0.6474152  0.2179535    0.00000       Uiso       1.00
       C12          C  0.3271789  0.6699958  0.2350461    0.00000       Uiso       1.00
       C13          C  0.6049688  0.8594624  0.2296520    0.00000       Uiso       1.00
       C14          C  0.6183388  0.8826310  0.2147001    0.00000       Uiso       1.00
       C15          C  0.6000690  0.9065565  0.2134884    0.00000       Uiso       1.00
       C16          C  0.5683154  0.9066692  0.2285753    0.00000       Uiso       1.00
       C17          C  0.5548610  0.8834121  0.2432690    0.00000       Uiso       1.00
       C18          C  0.5959629  0.6508368  0.3187593    0.00000       Uiso       1.00
       C19          C  0.6169111  0.6302706  0.3285160    0.00000       Uiso       1.00
       C20          C  0.6505691  0.6354158  0.3336773    0.00000       Uiso       1.00
       C21          C  0.6628516  0.6613998  0.3268045    0.00000       Uiso       1.00
       C22          C  0.6419269  0.6818926  0.3167547    0.00000       Uiso       1.00
       C23          C  0.2620167  0.9058492  0.3901035    0.00000       Uiso       1.00
       C24          C  0.6714694  0.6159632  0.3467227    0.00000       Uiso       1.00
       C25          C  0.8134236  0.4290515  0.3197733    0.00000       Uiso       1.00
       C26          C  0.9522212  0.2566388  0.2458710    0.00000       Uiso       1.00
       C27          C  0.9816422  0.2769158  0.2467372    0.00000       Uiso       1.00
       C28          C  0.9642393  0.2682484  0.3027571    0.00000       Uiso       1.00
       C29          C  0.9793442  0.2469368  0.3259518    0.00000       Uiso       1.00
       C30          C  0.8977592  0.2410355  0.2154074    0.00000       Uiso       1.00
       C31          C  0.8963092  0.2167240  0.2336559    0.00000       Uiso       1.00
       C32          C  0.8726176  0.1967942  0.2262944    0.00000       Uiso       1.00
       C33          C  0.8493487  0.2002121  0.2002678    0.00000       Uiso       1.00
       C34          C  0.8503538  0.2245726  0.1823245    0.00000       Uiso       1.00
       C35          C  0.8738322  0.2444877  0.1899181    0.00000       Uiso       1.00
       C36          C  0.9227784  0.2631442  0.2215656    0.00000       Uiso       1.00
       C37          C  0.7482655  0.0732145  0.1388922    0.00000       Uiso       1.00
        N1          N  0.7648385  0.0938444  0.1541647    0.00000       Uiso       1.00
       C38          C  0.9054197  0.2883272  0.2340949    0.00000       Uiso       1.00
       C39          C  0.8841397  0.2877338  0.2633640    0.00000       Uiso       1.00
       C40          C  0.8685498  0.3109924  0.2762607    0.00000       Uiso       1.00
       C41          C  0.8732763  0.3359189  0.2601662    0.00000       Uiso       1.00
       C42          C  0.8938748  0.3365825  0.2304741    0.00000       Uiso       1.00
       C43          C  0.9095502  0.3132623  0.2176945    0.00000       Uiso       1.00
       C44          C  0.9472816  0.2907681  0.3245990    0.00000       Uiso       1.00
        N2          N  0.7841915  0.4277831  0.3366148    0.00000       Uiso       1.00
       C45          C  0.7673775  0.4466320  0.3552415    0.00000       Uiso       1.00
       C46          C  0.0387040  0.2916804  0.2204673    0.00000       Uiso       1.00
       C47          C  0.0656099  0.2873020  0.1974288    0.00000       Uiso       1.00
       C48          C  0.0886487  0.3076202  0.1903921    0.00000       Uiso       1.00
       C49          C  0.0861317  0.3333600  0.2064091    0.00000       Uiso       1.00
       C50          C  0.0601936  0.3376186  0.2305200    0.00000       Uiso       1.00
       C51          C  0.0370566  0.3172443  0.2374046    0.00000       Uiso       1.00
       C52          C  0.0136698  0.2693908  0.2251667    0.00000       Uiso       1.00
       C53          C  0.1834500  0.4591546  0.1385918    0.00000       Uiso       1.00
        N3          N  0.1665274  0.4396283  0.1551202    0.00000       Uiso       1.00
       C54          C  0.0295602  0.2449343  0.2397140    0.00000       Uiso       1.00
       C55          C  0.0258201  0.2189075  0.2245677    0.00000       Uiso       1.00
       C56          C  0.0393967  0.1962218  0.2395059    0.00000       Uiso       1.00
       C57          C  0.0575160  0.1986021  0.2701383    0.00000       Uiso       1.00
       C58          C  0.0620979  0.2245875  0.2848903    0.00000       Uiso       1.00
       C59          C  0.0484830  0.2472199  0.2699158    0.00000       Uiso       1.00
        N4          N  0.1380754  0.1056738  0.3474919    0.00000       Uiso       1.00
       C60          C  0.1531817  0.0864311  0.3652875    0.00000       Uiso       1.00
        O1          O  0.9408856  0.2551993  0.2808834    0.00000       Uiso       1.00
        O2          O  1.0034795  0.2643322  0.1904262    0.00000       Uiso       1.00
        O3          O  0.9895160  0.2803233  0.2823257    0.00000       Uiso       1.00
        O4          O  0.9368990  0.2661973  0.1877632    0.00000       Uiso       1.00
       C61          C  0.7237032  0.0763971  0.1142683    0.00000       Uiso       1.00
       C62          C  0.7092107  0.0538810  0.0978633    0.00000       Uiso       1.00
       C63          C  0.7183627  0.0272796  0.1054919    0.00000       Uiso       1.00
       C64          C  0.7419905  0.0245475  0.1314615    0.00000       Uiso       1.00
       C65          C  0.7570569  0.0469935  0.1474443    0.00000       Uiso       1.00
       C66          C  0.2096479  0.4541724  0.1151147    0.00000       Uiso       1.00
       C67          C  0.2248898  0.4753348  0.0974522    0.00000       Uiso       1.00
       C68          C  0.2148347  0.5023727  0.1025264    0.00000       Uiso       1.00
       C69          C  0.1890788  0.5070109  0.1270149    0.00000       Uiso       1.00
       C70          C  0.1734341  0.4858703  0.1443850    0.00000       Uiso       1.00
       C71          C  0.1866782  0.0903240  0.3717256    0.00000       Uiso       1.00
       C72          C  0.2041567  0.0717193  0.3907409    0.00000       Uiso       1.00
       C73          C  0.1888931  0.0484595  0.4043751    0.00000       Uiso       1.00
       C74          C  0.1551534  0.0447936  0.3971316    0.00000       Uiso       1.00
       C75          C  0.1376063  0.0632295  0.3780714    0.00000       Uiso       1.00
       C76          C  0.7393727  0.4377874  0.3735058    0.00000       Uiso       1.00
       C77          C  0.7216172  0.4555144  0.3954193    0.00000       Uiso       1.00
       C78          C  0.7310986  0.4828490  0.3999001    0.00000       Uiso       1.00
       C79          C  0.7584878  0.4916593  0.3799914    0.00000       Uiso       1.00
       C80          C  0.7763780  0.4740024  0.3581699    0.00000       Uiso       1.00
       C81          C  0.7141076  0.5024321  0.4248542    0.00000       Uiso       1.00
       C82          C  0.8261323  0.1799611  0.1916764    0.00000       Uiso       1.00
       C83          C  0.8579728  0.3593637  0.2736927    0.00000       Uiso       1.00
       C84          C  0.1084510  0.3541126  0.1976466    0.00000       Uiso       1.00
       C85          C  0.0703203  0.1757414  0.2858589    0.00000       Uiso       1.00
       C86          C  0.3193659  0.6012170  0.1936351    0.00000       Uiso       1.00
       C87          C  0.1424423  0.3492900  0.1946277    0.00000       Uiso       1.00
       C88          C  0.1642512  0.3693364  0.1832798    0.00000       Uiso       1.00
       C89          C  0.1529381  0.3950238  0.1747727    0.00000       Uiso       1.00
       C90          C  0.1191737  0.4002954  0.1793133    0.00000       Uiso       1.00
       C91          C  0.0973263  0.3801662  0.1904440    0.00000       Uiso       1.00
       C92          C  0.0505111  0.1527680  0.2914671    0.00000       Uiso       1.00
       C93          C  0.0629134  0.1302505  0.3078379    0.00000       Uiso       1.00
       C94          C  0.0955549  0.1298583  0.3192246    0.00000       Uiso       1.00
       C95          C  0.1154828  0.1527170  0.3132315    0.00000       Uiso       1.00
       C96          C  0.1030927  0.1752361  0.2968283    0.00000       Uiso       1.00
       C97          C  0.8245698  0.3590111  0.2838686    0.00000       Uiso       1.00
       C98          C  0.8096095  0.3819371  0.2986877    0.00000       Uiso       1.00
       C99          C  0.8274825  0.4061394  0.3036803    0.00000       Uiso       1.00
      C100          C  0.8606308  0.4067509  0.2926193    0.00000       Uiso       1.00
      C101          C  0.8756571  0.3837401  0.2780076    0.00000       Uiso       1.00
      C102          C  0.8354039  0.1527297  0.1878629    0.00000       Uiso       1.00
      C103          C  0.8128597  0.1328216  0.1772487    0.00000       Uiso       1.00
      C104          C  0.7802256  0.1394588  0.1697892    0.00000       Uiso       1.00
      C105          C  0.7706034  0.1664847  0.1747643    0.00000       Uiso       1.00
      C106          C  0.7930958  0.1863286  0.1856648    0.00000       Uiso       1.00
      C107          C  0.1750580  0.4140112  0.1610822    0.00000       Uiso       1.00
      C108          C  0.7577957  0.1203053  0.1566707    0.00000       Uiso       1.00
      C109          C  0.4815385  0.7546543  0.2764715    0.00000       Uiso       1.00
      C110          C  0.4517146  0.7738650  0.2810495    0.00000       Uiso       1.00
      C111          C  0.4632000  0.7664204  0.2226642    0.00000       Uiso       1.00
      C112          C  0.4464526  0.7451544  0.1989200    0.00000       Uiso       1.00
      C113          C  0.5389658  0.7400243  0.2984417    0.00000       Uiso       1.00
      C114          C  0.5373279  0.7154064  0.2792810    0.00000       Uiso       1.00
      C115          C  0.5603907  0.6950259  0.2833901    0.00000       Uiso       1.00
      C116          C  0.5862191  0.6983384  0.3068916    0.00000       Uiso       1.00
      C117          C  0.5890576  0.7233489  0.3247237    0.00000       Uiso       1.00
      C118          C  0.5661221  0.7437190  0.3203503    0.00000       Uiso       1.00
      C119          C  0.5136610  0.7619610  0.2969351    0.00000       Uiso       1.00
      C120          C  0.6764983  0.5702796  0.3678713    0.00000       Uiso       1.00
        N5          N  0.6616826  0.5902659  0.3512337    0.00000       Uiso       1.00
      C121          C  0.5293295  0.7874392  0.2837749    0.00000       Uiso       1.00
      C122          C  0.5478482  0.7870836  0.2524824    0.00000       Uiso       1.00
      C123          C  0.5621596  0.8105766  0.2394427    0.00000       Uiso       1.00
      C124          C  0.5587916  0.8355565  0.2572952    0.00000       Uiso       1.00
      C125          C  0.5407330  0.8360147  0.2887954    0.00000       Uiso       1.00
      C126          C  0.5262808  0.8124816  0.3016733    0.00000       Uiso       1.00
      C127          C  0.4776427  0.7900220  0.2018409    0.00000       Uiso       1.00
        N6          N  0.6395619  0.9288809  0.1769888    0.00000       Uiso       1.00
      C128          C  0.6546135  0.9480094  0.1580056    0.00000       Uiso       1.00
      C129          C  0.3981878  0.7864044  0.3163636    0.00000       Uiso       1.00
      C130          C  0.3758217  0.7819613  0.3440763    0.00000       Uiso       1.00
      C131          C  0.3534171  0.8016306  0.3554838    0.00000       Uiso       1.00
      C132          C  0.3513589  0.8265781  0.3390321    0.00000       Uiso       1.00
      C133          C  0.3727807  0.8307352  0.3105093    0.00000       Uiso       1.00
      C134          C  0.3957157  0.8112603  0.2996214    0.00000       Uiso       1.00
      C135          C  0.4228872  0.7649745  0.3062789    0.00000       Uiso       1.00
      C136          C  0.2465378  0.9534539  0.3941877    0.00000       Uiso       1.00
        N7          N  0.2641759  0.9321260  0.3822293    0.00000       Uiso       1.00
      C137          C  0.4054681  0.7402190  0.2921418    0.00000       Uiso       1.00
      C138          C  0.4101848  0.7143233  0.3053867    0.00000       Uiso       1.00
      C139          C  0.3949463  0.6914026  0.2907539    0.00000       Uiso       1.00
      C140          C  0.3742973  0.6932322  0.2620296    0.00000       Uiso       1.00
      C141          C  0.3688504  0.7191491  0.2493160    0.00000       Uiso       1.00
      C142          C  0.3838212  0.7420517  0.2642137    0.00000       Uiso       1.00
        N8          N  0.2915814  0.6021428  0.1752809    0.00000       Uiso       1.00
      C143          C  0.2765951  0.5829983  0.1554848    0.00000       Uiso       1.00
        O5          O  0.4887872  0.7534928  0.2402812    0.00000       Uiso       1.00
        O6          O  0.4389029  0.7595760  0.3379043    0.00000       Uiso       1.00
        O7          O  0.4396926  0.7769356  0.2470305    0.00000       Uiso       1.00
        O8          O  0.5028322  0.7653494  0.3321542    0.00000       Uiso       1.00
      C144          C  0.7003068  0.5746824  0.3933381    0.00000       Uiso       1.00
      C145          C  0.7128409  0.5530967  0.4114696    0.00000       Uiso       1.00
      C146          C  0.7023066  0.5262473  0.4048701    0.00000       Uiso       1.00
      C147          C  0.6793304  0.5221796  0.3781692    0.00000       Uiso       1.00
      C148          C  0.6663679  0.5437420  0.3602924    0.00000       Uiso       1.00
      C149          C  0.2238039  0.9523710  0.4220746    0.00000       Uiso       1.00
      C150          C  0.2023307  0.9750205  0.4328409    0.00000       Uiso       1.00
      C151          C  0.2018346 -0.0004255  0.4085057    0.00000       Uiso       1.00
      C152          C  0.2202053 -0.0048350  0.3731081    0.00000       Uiso       1.00
      C153          C  0.2523608  0.9794179  0.3769239    0.00000       Uiso       1.00
      C154          C  0.2512906  0.5914692  0.1342890    0.00000       Uiso       1.00
      C155          C  0.2356374  0.5733184  0.1114200    0.00000       Uiso       1.00
      C156          C  0.2445100  0.5458460  0.1088415    0.00000       Uiso       1.00
      C157          C  0.2690516  0.5374339  0.1315286    0.00000       Uiso       1.00
      C158          C  0.2848814  0.5555312  0.1542868    0.00000       Uiso       1.00
      C159          C  0.6803109  0.9393088  0.1357744    0.00000       Uiso       1.00
      C160          C  0.6962179  0.9575066  0.1138113    0.00000       Uiso       1.00
      C161          C  0.6868899  0.9846672  0.1133369    0.00000       Uiso       1.00
      C162          C  0.6619117  0.9935833  0.1364759    0.00000       Uiso       1.00
      C163          C  0.6459204  0.9754515  0.1585567    0.00000       Uiso       1.00
      C164          C  0.7043504  0.0023655  0.0875660    0.00000       Uiso       1.00
      C165          C  0.2063352  0.0283081  0.4263065    0.00000       Uiso       1.00
      C166          C  0.6079233  0.6772141  0.3135543    0.00000       Uiso       1.00
      C167          C  0.5727758  0.8592529  0.2437212    0.00000       Uiso       1.00
      C168          C  0.3289099  0.8465159  0.3508714    0.00000       Uiso       1.00
      C169          C  0.3599559  0.6700825  0.2462254    0.00000       Uiso       1.00
      C170          C  0.6123042  0.9296866  0.1972914    0.00000       Uiso       1.00
        H1          H  0.0911895  0.0915975  0.3404467    0.00000       Uiso       1.00
        H2          H  0.2894081  0.8199734  0.3628620    0.00000       Uiso       1.00
        H3          H  0.2528608  0.8531042  0.3851240    0.00000       Uiso       1.00
        H4          H  0.3227948  0.9135886  0.3634436    0.00000       Uiso       1.00
        H5          H  0.3601288  0.8803611  0.3430048    0.00000       Uiso       1.00
        H6          H  0.4019188  0.6452569  0.2480021    0.00000       Uiso       1.00
        H7          H  0.3784726  0.6068527  0.2201863    0.00000       Uiso       1.00
        H8          H  0.2897882  0.6484283  0.2101438    0.00000       Uiso       1.00
        H9          H  0.3127874  0.6864844  0.2392608    0.00000       Uiso       1.00
       H10          H  0.6191190  0.8426483  0.2301064    0.00000       Uiso       1.00
       H11          H  0.6416197  0.8817278  0.2046247    0.00000       Uiso       1.00
       H12          H  0.5543981  0.9236476  0.2286221    0.00000       Uiso       1.00
       H13          H  0.5315335  0.8842645  0.2532327    0.00000       Uiso       1.00
       H14          H  0.5716267  0.6463971  0.3162950    0.00000       Uiso       1.00
       H15          H  0.6070442  0.6116318  0.3325121    0.00000       Uiso       1.00
       H16          H  0.6871901  0.6657959  0.3294573    0.00000       Uiso       1.00
       H17          H  0.6518116  0.7004309  0.3121322    0.00000       Uiso       1.00
       H18          H  0.2433670  0.8994830  0.4059156    0.00000       Uiso       1.00
       H19          H  0.6945937  0.6215941  0.3537076    0.00000       Uiso       1.00
       H20          H  0.8261797  0.4468015  0.3196266    0.00000       Uiso       1.00
       H21          H  0.9615488  0.2367921  0.2386401    0.00000       Uiso       1.00
       H22          H  0.9729112  0.2962794  0.2383308    0.00000       Uiso       1.00
       H23          H  0.9898399  0.2306844  0.3100692    0.00000       Uiso       1.00
       H24          H  0.9606695  0.2383528  0.3429847    0.00000       Uiso       1.00
       H25          H  0.9986321  0.2559036  0.3416997    0.00000       Uiso       1.00
       H26          H  0.9124057  0.2130459  0.2526922    0.00000       Uiso       1.00
       H27          H  0.8725159  0.1796609  0.2403185    0.00000       Uiso       1.00
       H28          H  0.8341919  0.2280247  0.1631433    0.00000       Uiso       1.00
       H29          H  0.8734771  0.2617680  0.1762115    0.00000       Uiso       1.00
       H30          H  0.8798549  0.2701757  0.2758540    0.00000       Uiso       1.00
       H31          H  0.8538996  0.3095087  0.2978440    0.00000       Uiso       1.00
       H32          H  0.8976203  0.3541111  0.2177214    0.00000       Uiso       1.00
       H33          H  0.9242328  0.3148783  0.1962223    0.00000       Uiso       1.00
       H34          H  0.9265901  0.2826613  0.3393100    0.00000       Uiso       1.00
       H35          H  0.9383469  0.3062320  0.3078327    0.00000       Uiso       1.00
       H36          H  0.9644732  0.3001735  0.3425240    0.00000       Uiso       1.00
       H37          H  0.0684322  0.2690708  0.1850035    0.00000       Uiso       1.00
       H38          H  0.1070648  0.3034475  0.1728918    0.00000       Uiso       1.00
       H39          H  0.0578301  0.3557350  0.2433410    0.00000       Uiso       1.00
       H40          H  0.0189228  0.3216376  0.2550127    0.00000       Uiso       1.00
       H41          H  0.0127945  0.2159953  0.2025463    0.00000       Uiso       1.00
       H42          H  0.0358778  0.1778500  0.2276678    0.00000       Uiso       1.00
       H43          H  0.0750647  0.2273037  0.3070328    0.00000       Uiso       1.00
       H44          H  0.0523155  0.2655780  0.2816465    0.00000       Uiso       1.00
       H45          H  0.9867107  0.2502632  0.1916445    0.00000       Uiso       1.00
       H46          H  0.9530774  0.2806818  0.1899426    0.00000       Uiso       1.00
       H47          H  0.7164320  0.0950846  0.1075368    0.00000       Uiso       1.00
       H48          H  0.6919059  0.0575168  0.0800139    0.00000       Uiso       1.00
       H49          H  0.7487195  0.0059488  0.1391031    0.00000       Uiso       1.00
       H50          H  0.7745995  0.0440332  0.1654217    0.00000       Uiso       1.00
       H51          H  0.2175837  0.4350552  0.1101345    0.00000       Uiso       1.00
       H52          H  0.2434065  0.4703713  0.0805673    0.00000       Uiso       1.00
       H53          H  0.1811808  0.5261068  0.1323442    0.00000       Uiso       1.00
       H54          H  0.1545818  0.4901485  0.1613353    0.00000       Uiso       1.00
       H55          H  0.1986333  0.1069391  0.3626674    0.00000       Uiso       1.00
       H56          H  0.2283064  0.0757773  0.3945599    0.00000       Uiso       1.00
       H57          H  0.1427006  0.0283702  0.4059283    0.00000       Uiso       1.00
       H58          H  0.1133918  0.0594807  0.3739530    0.00000       Uiso       1.00
       H59          H  0.7318861  0.4181511  0.3713489    0.00000       Uiso       1.00
       H60          H  0.7018065  0.4478303  0.4082786    0.00000       Uiso       1.00
       H61          H  0.7659813  0.5112947  0.3814443    0.00000       Uiso       1.00
       H62          H  0.7960445  0.4813896  0.3447328    0.00000       Uiso       1.00
       H63          H  0.3323192  0.5837598  0.1935531    0.00000       Uiso       1.00
       H64          H  0.1517062  0.3309781  0.2004529    0.00000       Uiso       1.00
       H65          H  0.1885740  0.3648261  0.1809991    0.00000       Uiso       1.00
       H66          H  0.1099408  0.4187158  0.1739987    0.00000       Uiso       1.00
       H67          H  0.0729929  0.3846538  0.1925691    0.00000       Uiso       1.00
       H68          H  0.0266406  0.1522873  0.2839915    0.00000       Uiso       1.00
       H69          H  0.0476543  0.1141206  0.3115032    0.00000       Uiso       1.00
       H70          H  0.1392915  0.1533218  0.3208188    0.00000       Uiso       1.00
       H71          H  0.1183610  0.1913094  0.2928908    0.00000       Uiso       1.00
       H72          H  0.8107044  0.3419577  0.2806111    0.00000       Uiso       1.00
       H73          H  0.7854545  0.3806450  0.3058466    0.00000       Uiso       1.00
       H74          H  0.8743748  0.4239220  0.2954949    0.00000       Uiso       1.00
       H75          H  0.8998694  0.3849159  0.2709849    0.00000       Uiso       1.00
       H76          H  0.8589355  0.1471048  0.1921691    0.00000       Uiso       1.00
       H77          H  0.8208112  0.1134619  0.1745023    0.00000       Uiso       1.00
       H78          H  0.7470804  0.1720875  0.1702430    0.00000       Uiso       1.00
       H79          H  0.7850307  0.2056188  0.1889970    0.00000       Uiso       1.00
       H80          H  0.1983848  0.4080707  0.1550039    0.00000       Uiso       1.00
       H81          H  0.7356530  0.1266818  0.1483474    0.00000       Uiso       1.00
       H82          H  0.4733415  0.7345857  0.2835779    0.00000       Uiso       1.00
       H83          H  0.4608425  0.7935268  0.2897421    0.00000       Uiso       1.00
       H84          H  0.4375480  0.7283586  0.2141068    0.00000       Uiso       1.00
       H85          H  0.4637763  0.7373928  0.1794301    0.00000       Uiso       1.00
       H86          H  0.4257591  0.7538660  0.1859694    0.00000       Uiso       1.00
       H87          H  0.5192332  0.7116794  0.2620336    0.00000       Uiso       1.00
       H88          H  0.5579877  0.6775825  0.2690867    0.00000       Uiso       1.00
       H89          H  0.6075498  0.7268990  0.3417091    0.00000       Uiso       1.00
       H90          H  0.5692620  0.7614077  0.3339292    0.00000       Uiso       1.00
       H91          H  0.5509989  0.7695221  0.2386322    0.00000       Uiso       1.00
       H92          H  0.5748436  0.8092226  0.2164495    0.00000       Uiso       1.00
       H93          H  0.5379535  0.8535590  0.3028304    0.00000       Uiso       1.00
       H94          H  0.5132722  0.8140017  0.3243949    0.00000       Uiso       1.00
       H95          H  0.4586701  0.7992859  0.1868347    0.00000       Uiso       1.00
       H96          H  0.4970827  0.7829729  0.1842649    0.00000       Uiso       1.00
       H97          H  0.4877660  0.8053280  0.2193312    0.00000       Uiso       1.00
       H98          H  0.3758170  0.7641881  0.3566917    0.00000       Uiso       1.00
       H99          H  0.3387468  0.7974653  0.3763536    0.00000       Uiso       1.00
      H100          H  0.3718948  0.8481105  0.2970924    0.00000       Uiso       1.00
      H101          H  0.4105116  0.8157271  0.2790626    0.00000       Uiso       1.00
      H102          H  0.4251198  0.7116874  0.3258168    0.00000       Uiso       1.00
      H103          H  0.3991775  0.6732259  0.3014146    0.00000       Uiso       1.00
      H104          H  0.3541744  0.7216870  0.2286109    0.00000       Uiso       1.00
      H105          H  0.3789704  0.7602885  0.2540572    0.00000       Uiso       1.00
      H106          H  0.4224189  0.7514187  0.3530977    0.00000       Uiso       1.00
      H107          H  0.5217859  0.7719687  0.3450026    0.00000       Uiso       1.00
      H108          H  0.7083213  0.5936655  0.3994813    0.00000       Uiso       1.00
      H109          H  0.7296932  0.5576051  0.4298262    0.00000       Uiso       1.00
      H110          H  0.6714967  0.5032176  0.3715489    0.00000       Uiso       1.00
      H111          H  0.6493559  0.5399106  0.3417320    0.00000       Uiso       1.00
      H112          H  0.2213270  0.9352483  0.4357966    0.00000       Uiso       1.00
      H113          H  0.1772597  0.9675391  0.4353969    0.00000       Uiso       1.00
      H114          H  0.2041334 -0.0157343  0.3553266    0.00000       Uiso       1.00
      H115          H  0.2643584  0.9766398  0.3516569    0.00000       Uiso       1.00
      H116          H  0.2442832  0.6111533  0.1349958    0.00000       Uiso       1.00
      H117          H  0.2178026  0.5807914  0.0964586    0.00000       Uiso       1.00
      H118          H  0.2759441  0.5177515  0.1315091    0.00000       Uiso       1.00
      H119          H  0.3025238  0.5483580  0.1697843    0.00000       Uiso       1.00
      H120          H  0.6873695  0.9196549  0.1349380    0.00000       Uiso       1.00
      H121          H  0.7181089  0.9504054  0.0931218    0.00000       Uiso       1.00
      H122          H  0.6550885  0.0132800  0.1372015    0.00000       Uiso       1.00
      H123          H  0.6278377  0.9825375  0.1747660    0.00000       Uiso       1.00
      H124          H  0.7264847  0.9913907  0.0657942    0.00000       Uiso       1.00
      H125          H  0.5996653  0.9472402  0.2001426    0.00000       Uiso       1.00
      C171          C  0.7589854  0.0255140  0.9035048    0.00000       Uiso       1.00
      C172          C  0.7086550  0.3491217  0.6759920    0.00000       Uiso       1.00
      C173          C  0.7302667  0.3697548  0.6659844    0.00000       Uiso       1.00
      C174          C  0.7186891  0.3957513  0.6593780    0.00000       Uiso       1.00
      C175          C  0.6849552  0.4007444  0.6647465    0.00000       Uiso       1.00
      C176          C  0.6633270  0.3800656  0.6745374    0.00000       Uiso       1.00
      C177          C  0.6201720  0.1465176  0.7482733    0.00000       Uiso       1.00
      C178          C  0.6333299  0.1232286  0.7621471    0.00000       Uiso       1.00
      C179          C  0.6647795  0.1235413  0.7767168    0.00000       Uiso       1.00
      C180          C  0.6830369  0.1477918  0.7758445    0.00000       Uiso       1.00
      C181          C  0.6699681  0.1710074  0.7617111    0.00000       Uiso       1.00
      C182          C  0.3913310  0.3564024  0.7696148    0.00000       Uiso       1.00
      C183          C  0.3774208  0.3792469  0.7859583    0.00000       Uiso       1.00
      C184          C  0.3957701  0.4032657  0.7903998    0.00000       Uiso       1.00
      C185          C  0.4283787  0.4036443  0.7776060    0.00000       Uiso       1.00
      C186          C  0.4423431  0.3807414  0.7615682    0.00000       Uiso       1.00
      C187          C  0.4029484  0.1504165  0.6675587    0.00000       Uiso       1.00
      C188          C  0.3801781  0.1301032  0.6593109    0.00000       Uiso       1.00
      C189          C  0.3464022  0.1357714  0.6576263    0.00000       Uiso       1.00
      C190          C  0.3360291  0.1621701  0.6659982    0.00000       Uiso       1.00
      C191          C  0.3588078  0.1824981  0.6744015    0.00000       Uiso       1.00
      C192          C  0.7403967  0.4153755  0.6464798    0.00000       Uiso       1.00
      C193          C  0.3235533  0.1162715  0.6464724    0.00000       Uiso       1.00
      C194          C  0.7999551  0.0022426  0.8573170    0.00000       Uiso       1.00
      C195          C  0.2801405  0.0037795  0.5584641    0.00000       Uiso       1.00
      C196          C  0.6766182  0.1002975  0.7921253    0.00000       Uiso       1.00
      C197          C  0.5184332  0.2550188  0.7219652    0.00000       Uiso       1.00
      C198          C  0.5477291  0.2752758  0.7231252    0.00000       Uiso       1.00
      C199          C  0.5304246  0.2660178  0.7789887    0.00000       Uiso       1.00
      C200          C  0.5444325  0.2450656  0.8034099    0.00000       Uiso       1.00
      C201          C  0.4638566  0.2390958  0.6932598    0.00000       Uiso       1.00
      C202          C  0.4644960  0.2144779  0.7108753    0.00000       Uiso       1.00
      C203          C  0.4410426  0.1941864  0.7050211    0.00000       Uiso       1.00
      C204          C  0.4158466  0.1976056  0.6811842    0.00000       Uiso       1.00
      C205          C  0.4147667  0.2220404  0.6635652    0.00000       Uiso       1.00
      C206          C  0.4382451  0.2423051  0.6695726    0.00000       Uiso       1.00
      C207          C  0.4882816  0.2617595  0.6988648    0.00000       Uiso       1.00
      C208          C  0.3170809  0.0704001  0.6222488    0.00000       Uiso       1.00
        N9          N  0.3329473  0.0909338  0.6383638    0.00000       Uiso       1.00
      C209          C  0.4707729  0.2864957  0.7128611    0.00000       Uiso       1.00
      C210          C  0.4493190  0.2849205  0.7419263    0.00000       Uiso       1.00
      C211          C  0.4337212  0.3077632  0.7561861    0.00000       Uiso       1.00
      C212          C  0.4387328  0.3333737  0.7419546    0.00000       Uiso       1.00
      C213          C  0.4593102  0.3349311  0.7122569    0.00000       Uiso       1.00
      C214          C  0.4750175  0.3120514  0.6981098    0.00000       Uiso       1.00
      C215          C  0.5130919  0.2891267  0.7994083    0.00000       Uiso       1.00
       N10          N  0.3535587  0.4263775  0.8240482    0.00000       Uiso       1.00
      C216          C  0.3381601  0.4463119  0.8422884    0.00000       Uiso       1.00
      C217          C  0.6044430  0.2906601  0.6969677    0.00000       Uiso       1.00
      C218          C  0.6311961  0.2872819  0.6734511    0.00000       Uiso       1.00
      C219          C  0.6545324  0.3077368  0.6682374    0.00000       Uiso       1.00
      C220          C  0.6523826  0.3325649  0.6866145    0.00000       Uiso       1.00
      C221          C  0.6266775  0.3357108  0.7112343    0.00000       Uiso       1.00
      C222          C  0.6032737  0.3152456  0.7162509    0.00000       Uiso       1.00
      C223          C  0.5790446  0.2684665  0.7000169    0.00000       Uiso       1.00
      C224          C  0.7475262  0.4612360  0.6260177    0.00000       Uiso       1.00
       N11          N  0.7313895  0.4411271  0.6422073    0.00000       Uiso       1.00
      C225          C  0.5949262  0.2429671  0.7115483    0.00000       Uiso       1.00
      C226          C  0.5920456  0.2182007  0.6929504    0.00000       Uiso       1.00
      C227          C  0.6064299  0.1946313  0.7046543    0.00000       Uiso       1.00
      C228          C  0.6242583  0.1947339  0.7355902    0.00000       Uiso       1.00
      C229          C  0.6275193  0.2194805  0.7539988    0.00000       Uiso       1.00
      C230          C  0.6134083  0.2430288  0.7420899    0.00000       Uiso       1.00
       N12          N  0.7036739  0.1008871  0.8117092    0.00000       Uiso       1.00
      C231          C  0.7176467  0.0816354  0.8305119    0.00000       Uiso       1.00
        O9          O  0.5076436  0.2524775  0.7570173    0.00000       Uiso       1.00
       O10          O  0.5668666  0.2654045  0.6657069    0.00000       Uiso       1.00
       O11          O  0.5564702  0.2770519  0.7586336    0.00000       Uiso       1.00
       O12          O  0.5020438  0.2660628  0.6651694    0.00000       Uiso       1.00
      C232          C  0.2865586  0.0726805  0.6062351    0.00000       Uiso       1.00
      C233          C  0.2739184  0.0511970  0.5861976    0.00000       Uiso       1.00
      C234          C  0.2912146  0.0267953  0.5818099    0.00000       Uiso       1.00
      C235          C  0.3206435  0.0241685  0.6000263    0.00000       Uiso       1.00
      C236          C  0.3335445  0.0457191  0.6197338    0.00000       Uiso       1.00
      C237          C  0.7722358  0.4569389  0.6006004    0.00000       Uiso       1.00
      C238          C  0.7866687  0.4786615  0.5833416    0.00000       Uiso       1.00
      C239          C  0.7381382  0.4877977  0.6341338    0.00000       Uiso       1.00
      C240          C  0.7437106  0.0898122  0.8516555    0.00000       Uiso       1.00
      C241          C  0.7580072  0.0718161  0.8742414    0.00000       Uiso       1.00
      C242          C  0.7468134  0.0448538  0.8767917    0.00000       Uiso       1.00
      C243          C  0.7218175  0.0366187  0.8536933    0.00000       Uiso       1.00
      C244          C  0.7074121  0.0545168  0.8310956    0.00000       Uiso       1.00
      C245          C  0.3108357  0.4389784  0.8627366    0.00000       Uiso       1.00
      C246          C  0.2948247  0.4580252  0.8843644    0.00000       Uiso       1.00
      C247          C  0.3053712  0.4852571  0.8864107    0.00000       Uiso       1.00
      C248          C  0.3317664  0.4925607  0.8641336    0.00000       Uiso       1.00
      C249          C  0.3479464  0.4735816  0.8426282    0.00000       Uiso       1.00
      C250          C  0.3926616  0.1770242  0.6746877    0.00000       Uiso       1.00
      C251          C  0.4241782  0.3565779  0.7573437    0.00000       Uiso       1.00
      C252          C  0.6746599  0.3537191  0.6795533    0.00000       Uiso       1.00
      C253          C  0.6380637  0.1709859  0.7481604    0.00000       Uiso       1.00
      C254          C  0.3828969  0.4263596  0.8072603    0.00000       Uiso       1.00
      H126          H  0.7180218  0.3305688  0.6803811    0.00000       Uiso       1.00
      H127          H  0.7546140  0.3654486  0.6632091    0.00000       Uiso       1.00
      H128          H  0.6755598  0.4193714  0.6609538    0.00000       Uiso       1.00
      H129          H  0.6389890  0.3844025  0.6772398    0.00000       Uiso       1.00
      H130          H  0.5970361  0.1454505  0.7387050    0.00000       Uiso       1.00
      H131          H  0.6193833  0.1060515  0.7618854    0.00000       Uiso       1.00
      H132          H  0.7060950  0.1489044  0.7855771    0.00000       Uiso       1.00
      H133          H  0.6841218  0.1880524  0.7614949    0.00000       Uiso       1.00
      H134          H  0.3770593  0.3395448  0.7667203    0.00000       Uiso       1.00
      H135          H  0.3536709  0.3780802  0.7945722    0.00000       Uiso       1.00
      H136          H  0.4425367  0.4206162  0.7801222    0.00000       Uiso       1.00
      H137          H  0.4662308  0.3818779  0.7533517    0.00000       Uiso       1.00
      H138          H  0.4272432  0.1456277  0.6676794    0.00000       Uiso       1.00
      H139          H  0.3888182  0.1112118  0.6540045    0.00000       Uiso       1.00
      H140          H  0.3117716  0.1669767  0.6657009    0.00000       Uiso       1.00
      H141          H  0.3504288  0.2014170  0.6801234    0.00000       Uiso       1.00
      H142          H  0.7636672  0.4098085  0.6394988    0.00000       Uiso       1.00
      H143          H  0.2997926  0.1217130  0.6432316    0.00000       Uiso       1.00
      H144          H  0.8191204  0.0153975  0.8674132    0.00000       Uiso       1.00
      H145          H  0.2259255  0.0087228  0.6014380    0.00000       Uiso       1.00
      H146          H  0.6636904  0.0827342  0.7893373    0.00000       Uiso       1.00
      H147          H  0.5280117  0.2355099  0.7135101    0.00000       Uiso       1.00
      H148          H  0.5387070  0.2949446  0.7162105    0.00000       Uiso       1.00
      H149          H  0.5555531  0.2286072  0.7883682    0.00000       Uiso       1.00
      H150          H  0.5249956  0.2367501  0.8197448    0.00000       Uiso       1.00
      H151          H  0.5630278  0.2542543  0.8198578    0.00000       Uiso       1.00
      H152          H  0.4819102  0.2107151  0.7285166    0.00000       Uiso       1.00
      H153          H  0.4424951  0.1768654  0.7185373    0.00000       Uiso       1.00
      H154          H  0.3970129  0.2252437  0.6459094    0.00000       Uiso       1.00
      H155          H  0.4364108  0.2596644  0.6562418    0.00000       Uiso       1.00
      H156          H  0.4450165  0.2669131  0.7533305    0.00000       Uiso       1.00
      H157          H  0.4189585  0.3054411  0.7775300    0.00000       Uiso       1.00
      H158          H  0.4631564  0.3528873  0.7005454    0.00000       Uiso       1.00
      H159          H  0.4899248  0.3144408  0.6769178    0.00000       Uiso       1.00
      H160          H  0.5297382  0.2986607  0.8177772    0.00000       Uiso       1.00
      H161          H  0.4917363  0.2814938  0.8135009    0.00000       Uiso       1.00
      H162          H  0.5050992  0.3043741  0.7818028    0.00000       Uiso       1.00
      H163          H  0.6337971  0.2697344  0.6594008    0.00000       Uiso       1.00
      H164          H  0.6728508  0.3044019  0.6503285    0.00000       Uiso       1.00
      H165          H  0.6246495  0.3530797  0.7257712    0.00000       Uiso       1.00
      H166          H  0.5853109  0.3188874  0.7343028    0.00000       Uiso       1.00
      H167          H  0.5791959  0.2169058  0.6706042    0.00000       Uiso       1.00
      H168          H  0.6037555  0.1773019  0.6901876    0.00000       Uiso       1.00
      H169          H  0.6400172  0.2206429  0.7766118    0.00000       Uiso       1.00
      H170          H  0.6167020  0.2604232  0.7562311    0.00000       Uiso       1.00
      H171          H  0.5853068  0.2593611  0.6511013    0.00000       Uiso       1.00
      H172          H  0.4842396  0.2725632  0.6511508    0.00000       Uiso       1.00
      H173          H  0.2734859  0.0900276  0.6083512    0.00000       Uiso       1.00
      H174          H  0.2519383  0.0537930  0.5747398    0.00000       Uiso       1.00
      H175          H  0.3554207  0.0433931  0.6316891    0.00000       Uiso       1.00
      H176          H  0.7795983  0.4379331  0.5939049    0.00000       Uiso       1.00
      H177          H  0.8040570  0.4742083  0.5649396    0.00000       Uiso       1.00
      H178          H  0.7202911  0.4915415  0.6524678    0.00000       Uiso       1.00
      H179          H  0.7522035  0.1092072  0.8512105    0.00000       Uiso       1.00
      H180          H  0.7764521  0.0791352  0.8891989    0.00000       Uiso       1.00
      H181          H  0.7133195  0.0172480  0.8534380    0.00000       Uiso       1.00
      H182          H  0.6892383  0.0475202  0.8154721    0.00000       Uiso       1.00
      H183          H  0.3026264  0.4194875  0.8624464    0.00000       Uiso       1.00
      H184          H  0.2755276  0.4513598  0.8989351    0.00000       Uiso       1.00
      H185          H  0.3669890  0.4799608  0.8274319    0.00000       Uiso       1.00
      H186          H  0.3967188  0.4435656  0.8075371    0.00000       Uiso       1.00
      C255          C  0.8877537  0.6018391  0.6794075    0.00000       Uiso       1.00
      C256          C  0.1921625  0.9257162  0.6654807    0.00000       Uiso       1.00
      C257          C  0.0547791  0.7563394  0.7565001    0.00000       Uiso       1.00
      C258          C  0.0246847  0.7752960  0.7598743    0.00000       Uiso       1.00
      C259          C  0.0364789  0.7661862  0.7018889    0.00000       Uiso       1.00
      C260          C  0.0195980  0.7444126  0.6790070    0.00000       Uiso       1.00
      C261          C  0.1113951  0.7426366  0.7813016    0.00000       Uiso       1.00
      C262          C  0.1105790  0.7174898  0.7632898    0.00000       Uiso       1.00
      C263          C  0.1332248  0.6972411  0.7698096    0.00000       Uiso       1.00
      C264          C  0.1578647  0.7012735  0.7945440    0.00000       Uiso       1.00
      C265          C  0.1596704  0.7266488  0.8116446    0.00000       Uiso       1.00
      C266          C  0.1371029  0.7468448  0.8049603    0.00000       Uiso       1.00
      C267          C  0.0867087  0.7646676  0.7768635    0.00000       Uiso       1.00
      C268          C  0.2512509  0.5743437  0.8565462    0.00000       Uiso       1.00
       N13          N  0.2355537  0.5944254  0.8409125    0.00000       Uiso       1.00
      C269          C  0.1039037  0.7887982  0.7615838    0.00000       Uiso       1.00
      C270          C  0.1212396  0.7864034  0.7296380    0.00000       Uiso       1.00
      C271          C  0.1368094  0.8085904  0.7144727    0.00000       Uiso       1.00
      C272          C  0.1363627  0.8343249  0.7307702    0.00000       Uiso       1.00
      C273          C  0.1201160  0.8365842  0.7633669    0.00000       Uiso       1.00
      C274          C  0.1040705  0.8144717  0.7781890    0.00000       Uiso       1.00
      C275          C  0.0510680  0.7890525  0.6798687    0.00000       Uiso       1.00
       N14          N  0.2184615  0.9248927  0.6437467    0.00000       Uiso       1.00
      C276          C  0.2323895  0.9445495  0.6246252    0.00000       Uiso       1.00
      C277          C  0.9704887  0.7878419  0.7938386    0.00000       Uiso       1.00
      C278          C  0.9477419  0.7835754  0.8212779    0.00000       Uiso       1.00
      C279          C  0.9242961  0.8028653  0.8311462    0.00000       Uiso       1.00
      C280          C  0.9219028  0.8272971  0.8135622    0.00000       Uiso       1.00
      C281          C  0.9439564  0.8313735  0.7855552    0.00000       Uiso       1.00
      C282          C  0.9677352  0.8122130  0.7760807    0.00000       Uiso       1.00
      C283          C  0.9956418  0.7665493  0.7849522    0.00000       Uiso       1.00
      C284          C  0.8131195  0.9528728  0.8638869    0.00000       Uiso       1.00
       N15          N  0.8304449  0.9315598  0.8512882    0.00000       Uiso       1.00
      C285          C  0.9783587  0.7414871  0.7713844    0.00000       Uiso       1.00
      C286          C  0.9827013  0.7158673  0.7856511    0.00000       Uiso       1.00
      C287          C  0.9670493  0.6927711  0.7719494    0.00000       Uiso       1.00
      C288          C  0.9462838  0.6941686  0.7433234    0.00000       Uiso       1.00
      C289          C  0.9413898  0.7197546  0.7293571    0.00000       Uiso       1.00
      C290          C  0.9568891  0.7427949  0.7432364    0.00000       Uiso       1.00
       N16          N  0.8592730  0.6031277  0.6623381    0.00000       Uiso       1.00
      C291          C  0.8429731  0.5844561  0.6430792    0.00000       Uiso       1.00
       O13          O  0.0618726  0.7536998  0.7203507    0.00000       Uiso       1.00
       O14          O  0.0103953  0.7621560  0.8175650    0.00000       Uiso       1.00
       O15          O  0.0129920  0.7775500  0.7256032    0.00000       Uiso       1.00
       O16          O  0.0758261  0.7701712  0.8117194    0.00000       Uiso       1.00
      C292          C  0.2768750  0.5784287  0.8800603    0.00000       Uiso       1.00
      C293          C  0.2902336  0.5566902  0.8972701    0.00000       Uiso       1.00
      C294          C  0.2787183  0.5299677  0.8917463    0.00000       Uiso       1.00
      C295          C  0.2540031  0.5261705  0.8667974    0.00000       Uiso       1.00
      C296          C  0.2402715  0.5478892  0.8498400    0.00000       Uiso       1.00
      C297          C  0.7935907  0.9523388  0.8943048    0.00000       Uiso       1.00
      C298          C  0.7749843  0.9744772  0.9056740    0.00000       Uiso       1.00
      C299          C  0.7713351  0.9988092  0.8843929    0.00000       Uiso       1.00
      C300          C  0.8159887  0.9769194  0.8456929    0.00000       Uiso       1.00
      C301          C  0.8160737  0.5935375  0.6246335    0.00000       Uiso       1.00
      C302          C  0.7988397  0.5760896  0.6022335    0.00000       Uiso       1.00
      C303          C  0.8076454  0.5487372  0.5973938    0.00000       Uiso       1.00
      C304          C  0.8338481  0.5396403  0.6174726    0.00000       Uiso       1.00
      C305          C  0.8513241  0.5570629  0.6397104    0.00000       Uiso       1.00
      C306          C  0.2607114  0.9379818  0.6049913    0.00000       Uiso       1.00
      C307          C  0.2760785  0.9570253  0.5837473    0.00000       Uiso       1.00
      C308          C  0.2638510  0.9834403  0.5815092    0.00000       Uiso       1.00
      C309          C  0.2356417  0.9899058  0.6017841    0.00000       Uiso       1.00
      C310          C  0.2200933  0.9708790  0.6227253    0.00000       Uiso       1.00
      C311          C  0.1796628  0.6805843  0.8027124    0.00000       Uiso       1.00
      C312          C  0.1510768  0.8569772  0.7149992    0.00000       Uiso       1.00
      C313          C  0.8985763  0.8469590  0.8239358    0.00000       Uiso       1.00
      C314          C  0.9311489  0.6709201  0.7287190    0.00000       Uiso       1.00
      C315          C  0.8665993  0.8395913  0.8350652    0.00000       Uiso       1.00
      C316          C  0.8439741  0.8590007  0.8468427    0.00000       Uiso       1.00
      C317          C  0.8522186  0.8866096  0.8472442    0.00000       Uiso       1.00
      C318          C  0.8836747  0.8942291  0.8350930    0.00000       Uiso       1.00
      C319          C  0.9064901  0.8747288  0.8239930    0.00000       Uiso       1.00
      C320          C  0.9487748  0.6468247  0.7230842    0.00000       Uiso       1.00
      C321          C  0.9341062  0.6240401  0.7074637    0.00000       Uiso       1.00
      C322          C  0.9013397  0.6245252  0.6965010    0.00000       Uiso       1.00
      C323          C  0.8834586  0.6483958  0.7027581    0.00000       Uiso       1.00
      C324          C  0.8980403  0.6710712  0.7187037    0.00000       Uiso       1.00
      C325          C  0.1811335  0.8551737  0.6962758    0.00000       Uiso       1.00
      C326          C  0.1950853  0.8776474  0.6800256    0.00000       Uiso       1.00
      C327          C  0.1795377  0.9028752  0.6820493    0.00000       Uiso       1.00
      C328          C  0.1498442  0.9048928  0.7011375    0.00000       Uiso       1.00
      C329          C  0.1358319  0.8823932  0.7170667    0.00000       Uiso       1.00
      C330          C  0.1681068  0.6541951  0.8086383    0.00000       Uiso       1.00
      C331          C  0.1894006  0.6340078  0.8189201    0.00000       Uiso       1.00
      C332          C  0.2230049  0.6395570  0.8239151    0.00000       Uiso       1.00
      C333          C  0.2347790  0.6656529  0.8167644    0.00000       Uiso       1.00
      C334          C  0.2135235  0.6857641  0.8062531    0.00000       Uiso       1.00
      C335          C  0.8296818  0.9055435  0.8605533    0.00000       Uiso       1.00
      C336          C  0.2444507  0.6203930  0.8367738    0.00000       Uiso       1.00
      C337          C  0.7772620  0.5055811  0.5907948    0.00000       Uiso       1.00
      C338          C  0.7530347  0.5094918  0.6171681    0.00000       Uiso       1.00
      C339          C  0.2908520  0.5061083  0.9114964    0.00000       Uiso       1.00
      C340          C  0.7912199  0.5295713  0.5717556    0.00000       Uiso       1.00
      H187          H  0.9003294  0.5841863  0.6790006    0.00000       Uiso       1.00
      H188          H  0.1805072  0.9435644  0.6698019    0.00000       Uiso       1.00
      H189          H  0.0468020  0.7365209  0.7648202    0.00000       Uiso       1.00
      H190          H  0.0334703  0.7952330  0.7679402    0.00000       Uiso       1.00
      H191          H  0.0107921  0.7279425  0.6948078    0.00000       Uiso       1.00
      H192          H  0.0367837  0.7362567  0.6596505    0.00000       Uiso       1.00
      H193          H -0.0011819  0.7528347  0.6658823    0.00000       Uiso       1.00
      H194          H  0.0934446  0.7133437  0.7451031    0.00000       Uiso       1.00
      H195          H  0.1314755  0.6794063  0.7562282    0.00000       Uiso       1.00
      H196          H  0.1771662  0.7306162  0.8296440    0.00000       Uiso       1.00
      H197          H  0.1393434  0.7648268  0.8181199    0.00000       Uiso       1.00
      H198          H  0.1225571  0.7682437  0.7168275    0.00000       Uiso       1.00
      H199          H  0.1482314  0.8056512  0.6909776    0.00000       Uiso       1.00
      H200          H  0.1197949  0.8545222  0.7767966    0.00000       Uiso       1.00
      H201          H  0.0924728  0.8175408  0.8015276    0.00000       Uiso       1.00
      H202          H  0.0702884  0.7813661  0.6624705    0.00000       Uiso       1.00
      H203          H  0.0614941  0.8047571  0.6965446    0.00000       Uiso       1.00
      H204          H  0.0320989  0.7980171  0.6645574    0.00000       Uiso       1.00
      H205          H  0.9482774  0.7661904  0.8347314    0.00000       Uiso       1.00
      H206          H  0.9091702  0.7988660  0.8517362    0.00000       Uiso       1.00
      H207          H  0.9429448  0.8484468  0.7715158    0.00000       Uiso       1.00
      H208          H  0.9828861  0.8165337  0.7557569    0.00000       Uiso       1.00
      H209          H  0.9975324  0.7135536  0.8062081    0.00000       Uiso       1.00
      H210          H  0.9709782  0.6748067  0.7833298    0.00000       Uiso       1.00
      H211          H  0.9266929  0.7219101  0.7085872    0.00000       Uiso       1.00
      H212          H  0.9524084  0.7607752  0.7321979    0.00000       Uiso       1.00
      H213          H  0.0254898  0.7472254  0.8136804    0.00000       Uiso       1.00
      H214          H  0.0614806  0.7857317  0.8108828    0.00000       Uiso       1.00
      H215          H  0.2856960  0.5972906  0.8854820    0.00000       Uiso       1.00
      H216          H  0.3083692  0.5610049  0.9142764    0.00000       Uiso       1.00
      H217          H  0.2453401  0.5073078  0.8609436    0.00000       Uiso       1.00
      H218          H  0.2219849  0.5442417  0.8326335    0.00000       Uiso       1.00
      H219          H  0.7929444  0.9356762  0.9090910    0.00000       Uiso       1.00
      H220          H  0.7622811  0.9727762  0.9284188    0.00000       Uiso       1.00
      H221          H  0.8302736  0.9774494  0.8237444    0.00000       Uiso       1.00
      H222          H  0.8090267  0.6131768  0.6270226    0.00000       Uiso       1.00
      H223          H  0.7799067  0.5840126  0.5892603    0.00000       Uiso       1.00
      H224          H  0.8407809  0.5199693  0.6158025    0.00000       Uiso       1.00
      H225          H  0.8702068  0.5495026  0.6531858    0.00000       Uiso       1.00
      H226          H  0.2703970  0.9191396  0.6058877    0.00000       Uiso       1.00
      H227          H  0.2963918  0.9512325  0.5698007    0.00000       Uiso       1.00
      H228          H  0.1996396  0.9766229  0.6363446    0.00000       Uiso       1.00
      H229          H  0.3061711  0.9911286  0.5451599    0.00000       Uiso       1.00
      H230          H  0.8592891  0.8198836  0.8347353    0.00000       Uiso       1.00
      H231          H  0.8213066  0.8527195  0.8551223    0.00000       Uiso       1.00
      H232          H  0.8905818  0.9140283  0.8348112    0.00000       Uiso       1.00
      H233          H  0.9292611  0.8811559  0.8163425    0.00000       Uiso       1.00
      H234          H  0.9727658  0.6456895  0.7298712    0.00000       Uiso       1.00
      H235          H  0.9478722  0.6071171  0.7037598    0.00000       Uiso       1.00
      H236          H  0.8595446  0.6495897  0.6957456    0.00000       Uiso       1.00
      H237          H  0.8840665  0.6878077  0.7229313    0.00000       Uiso       1.00
      H238          H  0.1933834  0.8373890  0.6942903    0.00000       Uiso       1.00
      H239          H  0.2167552  0.8753135  0.6667174    0.00000       Uiso       1.00
      H240          H  0.1378061  0.9227936  0.7034587    0.00000       Uiso       1.00
      H241          H  0.1139725  0.8848714  0.7299576    0.00000       Uiso       1.00
      H242          H  0.1438418  0.6494839  0.8061653    0.00000       Uiso       1.00
      H243          H  0.1798642  0.6153126  0.8232831    0.00000       Uiso       1.00
      H244          H  0.2590292  0.6703967  0.8194166    0.00000       Uiso       1.00
      H245          H  0.2230848  0.7043786  0.8014001    0.00000       Uiso       1.00
      H246          H  0.8120221  0.8991749  0.8775835    0.00000       Uiso       1.00
      H247          H  0.2674353  0.6264543  0.8436927    0.00000       Uiso       1.00
      H248          H  0.3333737  1.0065755  0.5985512    0.00000       Uiso       1.00
      H249          H  0.7456514  0.5284470  0.6241661    0.00000       Uiso       1.00
      H250          H  0.3398654  0.5120347  0.8636617    0.00000       Uiso       1.00
      C341          C  0.3183543  0.5129327  0.9383181    0.00000       Uiso       1.00
      H251          H  0.3263241  0.4948265  0.9509930    0.00000       Uiso       1.00
      H252          H  0.3399090  0.5219230  0.9260400    0.00000       Uiso       1.00
      H253          H  0.3096332  0.5270128  0.9584542    0.00000       Uiso       1.00
      C342          C  0.2609684  0.4959671  0.9339885    0.00000       Uiso       1.00
      H254          H  0.2679457  0.4795906  0.9504809    0.00000       Uiso       1.00
      H255          H  0.2514373  0.5121581  0.9507888    0.00000       Uiso       1.00
      H256          H  0.2409103  0.4886643  0.9180124    0.00000       Uiso       1.00
      C343          C  0.2581358  0.5180433  0.0566768    0.00000       Uiso       1.00
      H257          H  0.2679828  0.5358666  0.0441186    0.00000       Uiso       1.00
      H258          H  0.2784158  0.5084018  0.0692437    0.00000       Uiso       1.00
      H259          H  0.2494293  0.5042253  0.0364279    0.00000       Uiso       1.00
      C344          C  0.2019980  0.5370993  0.0601702    0.00000       Uiso       1.00
      H260          H  0.2111327  0.5533245  0.0440659    0.00000       Uiso       1.00
      H261          H  0.1922155  0.5213636  0.0429752    0.00000       Uiso       1.00
      H262          H  0.1816183  0.5450001  0.0757908    0.00000       Uiso       1.00
      C345          C  0.3228740  1.0025731  0.5200347    0.00000       Uiso       1.00
      H263          H  0.3477457  0.9950206  0.5209258    0.00000       Uiso       1.00
      H264          H  0.3130268  0.9963437  0.4950491    0.00000       Uiso       1.00
      H265          H  0.3247294  1.0245152  0.5214888    0.00000       Uiso       1.00
      C346          C  0.6834046  0.4907860  0.4447345    0.00000       Uiso       1.00
      H266          H  0.6720445  0.5062575  0.4613774    0.00000       Uiso       1.00
      H267          H  0.6647900  0.4831907  0.4271066    0.00000       Uiso       1.00
      H268          H  0.6901520  0.4742557  0.4610890    0.00000       Uiso       1.00
      C347          C  0.7394009  0.5095035  0.4539042    0.00000       Uiso       1.00
      H269          H  0.7287558  0.5231248  0.4734926    0.00000       Uiso       1.00
      H270          H  0.7470165  0.4914174  0.4668548    0.00000       Uiso       1.00
      H271          H  0.7614499  0.5191493  0.4436086    0.00000       Uiso       1.00
      C348          C  0.7620609  0.5417491  0.5515397    0.00000       Uiso       1.00
      H272          H  0.7511001  0.5265457  0.5344157    0.00000       Uiso       1.00
      H273          H  0.7427458  0.5492586  0.5689337    0.00000       Uiso       1.00
      H274          H  0.7702699  0.5584130  0.5356486    0.00000       Uiso       1.00
      C349          C  0.8178034  0.5226327  0.5430363    0.00000       Uiso       1.00
      H275          H  0.8076929  0.5096990  0.5226051    0.00000       Uiso       1.00
      H276          H  0.8271373  0.5408656  0.5310330    0.00000       Uiso       1.00
      H277          H  0.8386952  0.5123047  0.5534775    0.00000       Uiso       1.00
      C350          C  0.7286063  0.0200110  0.9280145    0.00000       Uiso       1.00
      H278          H  0.7353939  0.0095285  0.9511731    0.00000       Uiso       1.00
      H279          H  0.7173042  0.0388400  0.9368355    0.00000       Uiso       1.00
      H280          H  0.7099519  0.0078372  0.9150449    0.00000       Uiso       1.00
      C351          C  0.7864704  0.0372008  0.9276460    0.00000       Uiso       1.00
      H281          H  0.7946305  0.0221664  0.9455357    0.00000       Uiso       1.00
      H282          H  0.8078539  0.0440154  0.9129914    0.00000       Uiso       1.00
      H283          H  0.7775044  0.0543486  0.9430957    0.00000       Uiso       1.00
      C352          C  0.6780211  0.0080922  0.0600084    0.00000       Uiso       1.00
      H284          H  0.6692190 -0.0107091  0.0481742    0.00000       Uiso       1.00
      H285          H  0.6569474  0.0188003  0.0710524    0.00000       Uiso       1.00
      H286          H  0.6886781  0.0200277  0.0393201    0.00000       Uiso       1.00
      C353          C  0.7484995  0.9750628  0.0777092    0.00000       Uiso       1.00
      H287          H  0.7381263  0.9605783  0.1037709    0.00000       Uiso       1.00
      H288          H  0.7567788  0.9619312  0.0562430    0.00000       Uiso       1.00
      H289          H  0.7699964  0.9866036  0.0856726    0.00000       Uiso       1.00
      C354          C  0.2547925  0.0111016  0.5301231    0.00000       Uiso       1.00
      H290          H  0.2513320 -0.0061024  0.5124829    0.00000       Uiso       1.00
      H291          H  0.2309301  0.0166613  0.5410371    0.00000       Uiso       1.00
      H292          H  0.2637365  0.0280153  0.5151148    0.00000       Uiso       1.00
      C355          C  0.1895396  0.0302352  0.4631677    0.00000       Uiso       1.00
      H293          H  0.2018754  0.0176872  0.4814200    0.00000       Uiso       1.00
      H294          H  0.1902591  0.0508575  0.4734998    0.00000       Uiso       1.00
      H295          H  0.1640096  0.0236693  0.4627495    0.00000       Uiso       1.00
      C356          C  0.2437037  0.0343260  0.4320214    0.00000       Uiso       1.00
      H296          H  0.2548249  0.0186233  0.4469359    0.00000       Uiso       1.00
      H297          H  0.2572369  0.0355345  0.4075476    0.00000       Uiso       1.00
      H298          H  0.2472096  0.0533748  0.4461309    0.00000       Uiso       1.00
