data_10
_audit_creation_date              0000-00-00
_audit_creation_method            'LanYouShi'
_symmetry_space_group_name_H-M    'P1'
_cell_length_a                    68.7341995
_cell_length_b                    59.5264015
_cell_length_c                    59.5264015
_cell_angle_alpha                 70.5292969
_cell_angle_beta                  54.7360992
_cell_angle_gamma                 54.7360992
loop_
_atom_site_label
_atom_site_type_symbol
_atom_site_fract_x
_atom_site_fract_y
_atom_site_fract_z
_atom_site_U_iso_or_equiv
_atom_site_adp_type
_atom_site_occupancy
        C1          C  0.4999541  0.5000126  0.4999659    0.00000       Uiso       1.00
        C2          C  0.3707058  0.6087039  0.5481794    0.00000       Uiso       1.00
        C3          C  0.3805407  0.5801862  0.5538798    0.00000       Uiso       1.00
        C4          C  0.3614593  0.5708019  0.5722753    0.00000       Uiso       1.00
        C5          C  0.3328826  0.5897329  0.5851076    0.00000       Uiso       1.00
        C6          C  0.3230477  0.6183028  0.5796554    0.00000       Uiso       1.00
        C7          C  0.3421226  0.6276805  0.5611097    0.00000       Uiso       1.00
        H1          H  0.3350043  0.6496353  0.5564606    0.00000       Uiso       1.00
        H2          H  0.3687015  0.5488080  0.5766893    0.00000       Uiso       1.00
        C8          C  0.5654536  0.5539264  0.4197923    0.00000       Uiso       1.00
        C9          C  0.5809888  0.5482261  0.3912746    0.00000       Uiso       1.00
       C10          C  0.5661394  0.5723219  0.4291766    0.00000       Uiso       1.00
       C11          C  0.5818838  0.5851542  0.4102457    0.00000       Uiso       1.00
       C12          C  0.5971709  0.5797020  0.3816758    0.00000       Uiso       1.00
       C13          C  0.5966418  0.5611563  0.3722980    0.00000       Uiso       1.00
        H3          H  0.6084092  0.5565072  0.3503432    0.00000       Uiso       1.00
        H4          H  0.5544832  0.5767359  0.4511705    0.00000       Uiso       1.00
       C14          C  0.5146285  0.4198389  0.4460520    0.00000       Uiso       1.00
       C15          C  0.5276110  0.3913212  0.4517524    0.00000       Uiso       1.00
       C16          C  0.5045583  0.4292232  0.4276565    0.00000       Uiso       1.00
       C17          C  0.5077449  0.4102923  0.4148242    0.00000       Uiso       1.00
       C18          C  0.5210277  0.3817224  0.4202764    0.00000       Uiso       1.00
       C19          C  0.5309348  0.3723446  0.4388221    0.00000       Uiso       1.00
        H5          H  0.5411221  0.3503898  0.4434713    0.00000       Uiso       1.00
        H6          H  0.4942206  0.4512171  0.4232425    0.00000       Uiso       1.00
       C20          C  0.5391937  0.4460987  0.5801396    0.00000       Uiso       1.00
       C21          C  0.5205109  0.4517991  0.6086572    0.00000       Uiso       1.00
       C22          C  0.5676594  0.4277033  0.5707552    0.00000       Uiso       1.00
       C23          C  0.5773053  0.4148710  0.5896862    0.00000       Uiso       1.00
       C24          C  0.5585701  0.4203232  0.6182561    0.00000       Uiso       1.00
       C25          C  0.5301174  0.4388689  0.6276339    0.00000       Uiso       1.00
        H7          H  0.5152808  0.4435180  0.6495886    0.00000       Uiso       1.00
        H8          H  0.5824112  0.4232892  0.5487612    0.00000       Uiso       1.00
        N1          N  0.5812955  0.5282600  0.3805648    0.00000       Uiso       1.00
        H9          H  0.5934177  0.5268960  0.3598886    0.00000       Uiso       1.00
       H10          H  0.5619571  0.5349839  0.3856604    0.00000       Uiso       1.00
        N2          N  0.5380142  0.3806114  0.4717184    0.00000       Uiso       1.00
       H11          H  0.5465683  0.3599352  0.4730824    0.00000       Uiso       1.00
       H12          H  0.5221632  0.3890586  0.4904305    0.00000       Uiso       1.00
        N3          N  0.4901416  0.4717651  0.6193670    0.00000       Uiso       1.00
       H13          H  0.4802235  0.4731291  0.6400433    0.00000       Uiso       1.00
       H14          H  0.4826228  0.4650412  0.6142714    0.00000       Uiso       1.00
        N4          N  0.3903653  0.6194137  0.5282134    0.00000       Uiso       1.00
       H15          H  0.4099073  0.6035299  0.5207290    0.00000       Uiso       1.00
       H16          H  0.3877463  0.6326986  0.5380144    0.00000       Uiso       1.00
        N5          N  0.5821090  0.6046990  0.4209004    0.00000       Uiso       1.00
       H17          H  0.5942099  0.6121138  0.4049690    0.00000       Uiso       1.00
       H18          H  0.5894988  0.5946028  0.4340039    0.00000       Uiso       1.00
        N6          N  0.4968650  0.4209470  0.3952795    0.00000       Uiso       1.00
       H19          H  0.5006955  0.4050156  0.3878646    0.00000       Uiso       1.00
       H20          H  0.5062453  0.4309241  0.3795365    0.00000       Uiso       1.00
        N7          N  0.3131126  0.5790781  0.6046523    0.00000       Uiso       1.00
       H21          H  0.2935969  0.5950096  0.6120672    0.00000       Uiso       1.00
       H22          H  0.3167271  0.5691010  0.6203953    0.00000       Uiso       1.00
        N8          N  0.6077300  0.3953262  0.5790314    0.00000       Uiso       1.00
       H23          H  0.6113142  0.3879114  0.5949628    0.00000       Uiso       1.00
       H24          H  0.6181270  0.4054223  0.5659280    0.00000       Uiso       1.00
       C26          C  0.4563146  0.5419769  0.4990718    0.00000       Uiso       1.00
       C27          C  0.4684183  0.5207859  0.5142849    0.00000       Uiso       1.00
       C28          C  0.4503692  0.5180147  0.5421703    0.00000       Uiso       1.00
       C29          C  0.4221844  0.5373971  0.5549681    0.00000       Uiso       1.00
       C30          C  0.4107380  0.5597260  0.5401384    0.00000       Uiso       1.00
       C31          C  0.4281208  0.5615196  0.5118884    0.00000       Uiso       1.00
       H25          H  0.4197785  0.5777406  0.4995777    0.00000       Uiso       1.00
       H26          H  0.4579774  0.5008330  0.5543098    0.00000       Uiso       1.00
       C32          C  0.5171709  0.5143315  0.4791926    0.00000       Uiso       1.00
       C33          C  0.5444877  0.4991185  0.4580015    0.00000       Uiso       1.00
       C34          C  0.5073348  0.5422168  0.4819640    0.00000       Uiso       1.00
       C35          C  0.5227217  0.5550146  0.4625815    0.00000       Uiso       1.00
       C36          C  0.5489978  0.5401850  0.4402525    0.00000       Uiso       1.00
       C37          C  0.5598649  0.5119351  0.4384588    0.00000       Uiso       1.00
       H27          H  0.5805179  0.4996244  0.4222377    0.00000       Uiso       1.00
       H28          H  0.4875869  0.5543563  0.4991457    0.00000       Uiso       1.00
       C38          C  0.5035106  0.4792393  0.4856470    0.00000       Uiso       1.00
       C39          C  0.4973851  0.4580482  0.5008600    0.00000       Uiso       1.00
       C40          C  0.5105756  0.4820105  0.4577616    0.00000       Uiso       1.00
       C41          C  0.5145712  0.4626280  0.4449638    0.00000       Uiso       1.00
       C42          C  0.5106239  0.4402992  0.4597936    0.00000       Uiso       1.00
       C43          C  0.5015505  0.4385055  0.4880434    0.00000       Uiso       1.00
       H29          H  0.4971188  0.4222844  0.5003541    0.00000       Uiso       1.00
       H30          H  0.5131418  0.4991921  0.4456221    0.00000       Uiso       1.00
       C44          C  0.5107166  0.4856936  0.5207392    0.00000       Uiso       1.00
       C45          C  0.5016292  0.5009066  0.5419303    0.00000       Uiso       1.00
       C46          C  0.5315371  0.4578083  0.5179679    0.00000       Uiso       1.00
       C47          C  0.5403392  0.4450105  0.5373504    0.00000       Uiso       1.00
       C48          C  0.5294568  0.4598402  0.5596793    0.00000       Uiso       1.00
       C49          C  0.5102803  0.4880901  0.5614730    0.00000       Uiso       1.00
       H31          H  0.5024016  0.5004008  0.5776939    0.00000       Uiso       1.00
       H32          H  0.5411105  0.4456688  0.5007862    0.00000       Uiso       1.00
        N9          N  0.5104522  0.5852337  0.4659332    0.00000       Uiso       1.00
       H33          H  0.5238733  0.5914427  0.4505102    0.00000       Uiso       1.00
       H34          H  0.5064839  0.5883201  0.4841722    0.00000       Uiso       1.00
       N10          N  0.5234894  0.4659795  0.4147447    0.00000       Uiso       1.00
       H35          H  0.5254912  0.4505565  0.4085357    0.00000       Uiso       1.00
       H36          H  0.5417202  0.4654273  0.4038375    0.00000       Uiso       1.00
       N11          N  0.5616404  0.4147914  0.5339988    0.00000       Uiso       1.00
       H37          H  0.5658476  0.4085824  0.5494218    0.00000       Uiso       1.00
       H38          H  0.5789977  0.4117049  0.5157598    0.00000       Uiso       1.00
       N12          N  0.4042348  0.5340456  0.5851871    0.00000       Uiso       1.00
       H39          H  0.3846046  0.5494687  0.5913962    0.00000       Uiso       1.00
       H40          H  0.4110062  0.5345978  0.5960944    0.00000       Uiso       1.00
       N13          N  0.5574575  0.4685495  0.4555775    0.00000       Uiso       1.00
       H41          H  0.5768666  0.4610284  0.4394451    0.00000       Uiso       1.00
       H42          H  0.5463225  0.4650602  0.4526612    0.00000       Uiso       1.00
       N14          N  0.4868393  0.4556242  0.5314289    0.00000       Uiso       1.00
       H43          H  0.4835625  0.4394919  0.5389501    0.00000       Uiso       1.00
       H44          H  0.4690157  0.4730748  0.5408533    0.00000       Uiso       1.00
       N15          N  0.4739137  0.5444008  0.4685029    0.00000       Uiso       1.00
       H45          H  0.4935651  0.5290267  0.4622747    0.00000       Uiso       1.00
       H46          H  0.4731299  0.5627094  0.4643818    0.00000       Uiso       1.00
       N16          N  0.4816062  0.5314757  0.5443541    0.00000       Uiso       1.00
       H47          H  0.4773618  0.5389969  0.5604864    0.00000       Uiso       1.00
       H48          H  0.4640654  0.5349651  0.5472705    0.00000       Uiso       1.00
       C50          C  0.8749463  0.6250177  0.8749658    0.00000       Uiso       1.00
       C51          C  0.7662514  0.7060533  0.8544131    0.00000       Uiso       1.00
       C52          C  0.7947692  0.6905182  0.8357298    0.00000       Uiso       1.00
       C53          C  0.8041528  0.6912044  0.8072644    0.00000       Uiso       1.00
       C54          C  0.7852211  0.7069490  0.7976196    0.00000       Uiso       1.00
       C55          C  0.7566509  0.7222359  0.8163552    0.00000       Uiso       1.00
       C56          C  0.7472739  0.7217064  0.8448074    0.00000       Uiso       1.00
       H49          H  0.7253190  0.7334737  0.8596444    0.00000       Uiso       1.00
       H50          H  0.8261468  0.6795482  0.7925124    0.00000       Uiso       1.00
       C57          C  0.8210351  0.6396904  0.9943781    0.00000       Uiso       1.00
       C58          C  0.8267374  0.6526716  0.0042132    0.00000       Uiso       1.00
       C59          C  0.8026406  0.6296197  0.0134596    0.00000       Uiso       1.00
       C60          C  0.7898089  0.6328059  0.0420360    0.00000       Uiso       1.00
       C61          C  0.7952619  0.6460882  0.0518708    0.00000       Uiso       1.00
       C62          C  0.8138078  0.6559950  0.0327961    0.00000       Uiso       1.00
       H51          H  0.8184576  0.6661820  0.0399143    0.00000       Uiso       1.00
       H52          H  0.7982259  0.6192825  0.0062173    0.00000       Uiso       1.00
       C63          C  0.9551214  0.6642563  0.8094668    0.00000       Uiso       1.00
       C64          C  0.9836392  0.6455736  0.7939311    0.00000       Uiso       1.00
       C65          C  0.9457371  0.6927216  0.8087817    0.00000       Uiso       1.00
       C66          C  0.9646684  0.7023671  0.7930375    0.00000       Uiso       1.00
       C67          C  0.9932384  0.6836321  0.7777498    0.00000       Uiso       1.00
       C68          C  0.0026160  0.6551799  0.7782782    0.00000       Uiso       1.00
       H53          H  0.0245709  0.6403434  0.7665105    0.00000       Uiso       1.00
       H54          H  0.9237430  0.7074732  0.8204385    0.00000       Uiso       1.00
       C69          C  0.9288595  0.5056060  0.8602885    0.00000       Uiso       1.00
       C70          C  0.9231582  0.4957717  0.8473061    0.00000       Uiso       1.00
       C71          C  0.9472558  0.4865244  0.8703577    0.00000       Uiso       1.00
       C72          C  0.9600879  0.4579482  0.8671704    0.00000       Uiso       1.00
       C73          C  0.9546348  0.4481139  0.8538877    0.00000       Uiso       1.00
       C74          C  0.9360883  0.4671889  0.8439817    0.00000       Uiso       1.00
       H55          H  0.9314385  0.4600711  0.8337944    0.00000       Uiso       1.00
       H56          H  0.9516705  0.4937663  0.8806952    0.00000       Uiso       1.00
       N17          N  0.8467026  0.6630754  0.9845536    0.00000       Uiso       1.00
       H57          H  0.8480671  0.6716291  0.9953118    0.00000       Uiso       1.00
       H58          H  0.8399782  0.6773182  0.9719399    0.00000       Uiso       1.00
       N18          N  0.9943488  0.6152047  0.7936237    0.00000       Uiso       1.00
       H59          H  0.0150251  0.6052867  0.7815011    0.00000       Uiso       1.00
       H60          H  0.9859010  0.6123439  0.7862202    0.00000       Uiso       1.00
       N19          N  0.9031913  0.5154314  0.8369039    0.00000       Uiso       1.00
       H61          H  0.9018268  0.5046735  0.8283498    0.00000       Uiso       1.00
       H62          H  0.9099153  0.5280457  0.8226616    0.00000       Uiso       1.00
       N20          N  0.7555423  0.7063595  0.8847820    0.00000       Uiso       1.00
       H63          H  0.7714266  0.6943017  0.8884396    0.00000       Uiso       1.00
       H64          H  0.7422571  0.6991777  0.8954478    0.00000       Uiso       1.00
       N21          N  0.7702639  0.6219262  0.0618057    0.00000       Uiso       1.00
       H65          H  0.7628496  0.6257564  0.0813213    0.00000       Uiso       1.00
       H66          H  0.7803600  0.6014332  0.0590988    0.00000       Uiso       1.00
       N22          N  0.9540138  0.7327914  0.7928132    0.00000       Uiso       1.00
       H67          H  0.9699454  0.7363755  0.7807122    0.00000       Uiso       1.00
       H68          H  0.9440371  0.7391537  0.8121706    0.00000       Uiso       1.00
       N23          N  0.7958751  0.7071745  0.7671953    0.00000       Uiso       1.00
       H69          H  0.7799431  0.7192756  0.7636117    0.00000       Uiso       1.00
       H70          H  0.8058520  0.6878173  0.7608323    0.00000       Uiso       1.00
       N24          N  0.9796335  0.4381780  0.8780493    0.00000       Uiso       1.00
       H71          H  0.9870481  0.4186626  0.8742184    0.00000       Uiso       1.00
       H72          H  0.9695377  0.4408841  0.8985425    0.00000       Uiso       1.00
       C75          C  0.8329810  0.6695512  0.8732925    0.00000       Uiso       1.00
       C76          C  0.8541721  0.6422348  0.8642043    0.00000       Uiso       1.00
       C77          C  0.8569424  0.6323991  0.8433841    0.00000       Uiso       1.00
       C78          C  0.8375591  0.6477863  0.8345827    0.00000       Uiso       1.00
       C79          C  0.8152304  0.6740621  0.8454659    0.00000       Uiso       1.00
       C80          C  0.8134376  0.6849287  0.8646422    0.00000       Uiso       1.00
       H73          H  0.7972167  0.7055814  0.8725214    0.00000       Uiso       1.00
       H74          H  0.8741240  0.6126515  0.8338102    0.00000       Uiso       1.00
       C81          C  0.8606280  0.6285739  0.9065014    0.00000       Uiso       1.00
       C82          C  0.8758419  0.6224479  0.9186043    0.00000       Uiso       1.00
       C83          C  0.8327424  0.6356387  0.9245508    0.00000       Uiso       1.00
       C84          C  0.8199452  0.6396339  0.9527353    0.00000       Uiso       1.00
       C85          C  0.8347758  0.6356864  0.9641811    0.00000       Uiso       1.00
       C86          C  0.8630261  0.6266130  0.9467978    0.00000       Uiso       1.00
       H75          H  0.8753375  0.6221808  0.9551396    0.00000       Uiso       1.00
       H76          H  0.8206022  0.6382051  0.9169429    0.00000       Uiso       1.00
       C87          C  0.8957199  0.6357799  0.8577492    0.00000       Uiso       1.00
       C88          C  0.9169107  0.6266927  0.8304324    0.00000       Uiso       1.00
       C89          C  0.8929493  0.6565998  0.8675856    0.00000       Uiso       1.00
       C90          C  0.9123321  0.6654018  0.8521988    0.00000       Uiso       1.00
       C91          C  0.9346607  0.6545196  0.8259225    0.00000       Uiso       1.00
       C92          C  0.9364536  0.6353436  0.8150553    0.00000       Uiso       1.00
       H77          H  0.9526745  0.6274649  0.7944023    0.00000       Uiso       1.00
       H78          H  0.8757679  0.6661729  0.8873335    0.00000       Uiso       1.00
       C93          C  0.8892650  0.5934824  0.8714085    0.00000       Uiso       1.00
       C94          C  0.8740515  0.5813791  0.8775341    0.00000       Uiso       1.00
       C95          C  0.9171509  0.5754331  0.8643429    0.00000       Uiso       1.00
       C96          C  0.9299486  0.5472488  0.8603465    0.00000       Uiso       1.00
       C97          C  0.9151182  0.5358029  0.8642937    0.00000       Uiso       1.00
       C98          C  0.8868678  0.5531857  0.8733679    0.00000       Uiso       1.00
       H79          H  0.8745565  0.5448437  0.8777999    0.00000       Uiso       1.00
       H80          H  0.9292910  0.5830411  0.8617766    0.00000       Uiso       1.00
       N25          N  0.7897258  0.6485518  0.9706852    0.00000       Uiso       1.00
       H81          H  0.7835173  0.6505533  0.9903153    0.00000       Uiso       1.00
       H82          H  0.7866391  0.6342813  0.9698032    0.00000       Uiso       1.00
       N26          N  0.9089814  0.6867021  0.8644686    0.00000       Uiso       1.00
       H83          H  0.9244047  0.6909092  0.8510475    0.00000       Uiso       1.00
       H84          H  0.9095341  0.6793783  0.8821467    0.00000       Uiso       1.00
       N27          N  0.9601681  0.5292993  0.8514278    0.00000       Uiso       1.00
       H85          H  0.9663770  0.5096693  0.8494254    0.00000       Uiso       1.00
       H86          H  0.9632553  0.5301806  0.8656982    0.00000       Uiso       1.00
       N28          N  0.8409097  0.6355172  0.8132818    0.00000       Uiso       1.00
       H87          H  0.8254862  0.6489386  0.8090752    0.00000       Uiso       1.00
       H88          H  0.8403575  0.6178388  0.8206048    0.00000       Uiso       1.00
       N29          N  0.9064112  0.6119019  0.9010048    0.00000       Uiso       1.00
       H89          H  0.9139331  0.6086249  0.9128922    0.00000       Uiso       1.00
       H90          H  0.9099005  0.6259533  0.8863809    0.00000       Uiso       1.00
       N30          N  0.9193339  0.6066702  0.8174624    0.00000       Uiso       1.00
       H91          H  0.9354661  0.6024259  0.7980534    0.00000       Uiso       1.00
       H92          H  0.9018828  0.6150694  0.8170900    0.00000       Uiso       1.00
       N31          N  0.8305581  0.6825205  0.8933153    0.00000       Uiso       1.00
       H93          H  0.8459327  0.6690972  0.8975919    0.00000       Uiso       1.00
       H94          H  0.8122495  0.6874254  0.9108402    0.00000       Uiso       1.00
       N32          N  0.8434820  0.5989782  0.8880808    0.00000       Uiso       1.00
       H95          H  0.8359603  0.5870907  0.8913575    0.00000       Uiso       1.00
       H96          H  0.8399921  0.6136027  0.8740302    0.00000       Uiso       1.00
       C99          C  0.7499614  0.8750124  0.3749610    0.00000       Uiso       1.00
      C100          C  0.6689247  0.0042598  0.3473065    0.00000       Uiso       1.00
      C101          C  0.6844600  0.9944247  0.3602884    0.00000       Uiso       1.00
      C102          C  0.6837753  0.0135062  0.3703584    0.00000       Uiso       1.00
      C103          C  0.6680305  0.0420826  0.3671722    0.00000       Uiso       1.00
      C104          C  0.6527426  0.0519173  0.3538899    0.00000       Uiso       1.00
      C105          C  0.6532714  0.0328427  0.3439831    0.00000       Uiso       1.00
       H97          H  0.6415035  0.0399609  0.3337961    0.00000       Uiso       1.00
       H98          H  0.6954322  0.0062639  0.3806956    0.00000       Uiso       1.00
      C106          C  0.7352854  0.8095134  0.3357224    0.00000       Uiso       1.00
      C107          C  0.7223034  0.7939776  0.3544052    0.00000       Uiso       1.00
      C108          C  0.7453548  0.8088283  0.3072571    0.00000       Uiso       1.00
      C109          C  0.7421678  0.7930841  0.2976116    0.00000       Uiso       1.00
      C110          C  0.7288854  0.7777964  0.3163466    0.00000       Uiso       1.00
      C111          C  0.7189792  0.7783248  0.3447989    0.00000       Uiso       1.00
       H99          H  0.7087922  0.7665570  0.3596354    0.00000       Uiso       1.00
      H100          H  0.7556921  0.8204851  0.2925055    0.00000       Uiso       1.00
      C112          C  0.7107255  0.8603352  0.4943728    0.00000       Uiso       1.00
      C113          C  0.7294092  0.8473528  0.5042070    0.00000       Uiso       1.00
      C114          C  0.6822599  0.8704044  0.5134543    0.00000       Uiso       1.00
      C115          C  0.6726151  0.8672171  0.5420306    0.00000       Uiso       1.00
      C116          C  0.6913509  0.8539344  0.5518649    0.00000       Uiso       1.00
      C117          C  0.7198035  0.8440284  0.5327898    0.00000       Uiso       1.00
      H101          H  0.7346406  0.8338410  0.5399076    0.00000       Uiso       1.00
      H102          H  0.6675077  0.8807419  0.5062125    0.00000       Uiso       1.00
      C118          C  0.8693746  0.8357763  0.3094606    0.00000       Uiso       1.00
      C119          C  0.8792091  0.8544596  0.2939255    0.00000       Uiso       1.00
      C120          C  0.8884563  0.8073110  0.3087743    0.00000       Uiso       1.00
      C121          C  0.9170330  0.7976661  0.2930297    0.00000       Uiso       1.00
      C122          C  0.9268675  0.8164017  0.2777428    0.00000       Uiso       1.00
      C123          C  0.9077923  0.8448539  0.2782723    0.00000       Uiso       1.00
      H103          H  0.9149101  0.8596908  0.2665051    0.00000       Uiso       1.00
      H104          H  0.8812144  0.7925590  0.3204305    0.00000       Uiso       1.00
       N33          N  0.7119011  0.7936703  0.3847740    0.00000       Uiso       1.00
      H105          H  0.7033473  0.7815477  0.3946921    0.00000       Uiso       1.00
      H106          H  0.6976584  0.8130082  0.3922929    0.00000       Uiso       1.00
       N34          N  0.7597783  0.8369505  0.4845474    0.00000       Uiso       1.00
      H107          H  0.7696969  0.8283964  0.4953052    0.00000       Uiso       1.00
      H108          H  0.7626390  0.8528018  0.4732392    0.00000       Uiso       1.00
       N35          N  0.8595492  0.8848285  0.2936193    0.00000       Uiso       1.00
      H109          H  0.8703071  0.8947470  0.2814971    0.00000       Uiso       1.00
      H110          H  0.8469352  0.8923466  0.3129575    0.00000       Uiso       1.00
       N36          N  0.6686170  0.9846002  0.3369034    0.00000       Uiso       1.00
      H111          H  0.6806750  0.9650583  0.3407293    0.00000       Uiso       1.00
      H112          H  0.6757984  0.9872197  0.3164368    0.00000       Uiso       1.00
       N37          N  0.7530468  0.7928597  0.2671873    0.00000       Uiso       1.00
      H113          H  0.7492161  0.7807587  0.2636032    0.00000       Uiso       1.00
      H114          H  0.7735401  0.7854704  0.2567900    0.00000       Uiso       1.00
       N38          N  0.6421906  0.8780960  0.5618007    0.00000       Uiso       1.00
      H115          H  0.6386069  0.8742651  0.5813161    0.00000       Uiso       1.00
      H116          H  0.6358277  0.8687156  0.5581864    0.00000       Uiso       1.00
       N39          N  0.6678057  0.0618523  0.3780519    0.00000       Uiso       1.00
      H117          H  0.6557044  0.0813678  0.3742217    0.00000       Uiso       1.00
      H118          H  0.6871632  0.0582384  0.3686714    0.00000       Uiso       1.00
       N40          N  0.9368033  0.7672418  0.2928041    0.00000       Uiso       1.00
      H119          H  0.9563190  0.7636581  0.2807031    0.00000       Uiso       1.00
      H120          H  0.9340966  0.7568449  0.2854145    0.00000       Uiso       1.00
      C124          C  0.7054271  0.9186509  0.3775310    0.00000       Uiso       1.00
      C125          C  0.7327440  0.9065479  0.3714049    0.00000       Uiso       1.00
      C126          C  0.7425802  0.9245974  0.3643399    0.00000       Uiso       1.00
      C127          C  0.7271928  0.9527818  0.3603447    0.00000       Uiso       1.00
      C128          C  0.7009163  0.9642276  0.3642924    0.00000       Uiso       1.00
      C129          C  0.6900493  0.9468445  0.3733660    0.00000       Uiso       1.00
      H121          H  0.6693960  0.9551863  0.3777984    0.00000       Uiso       1.00
      H122          H  0.7623284  0.9169894  0.3617734    0.00000       Uiso       1.00
      C130          C  0.7464044  0.8577957  0.3641989    0.00000       Uiso       1.00
      C131          C  0.7525305  0.8304790  0.3732861    0.00000       Uiso       1.00
      C132          C  0.7393387  0.8676322  0.3433789    0.00000       Uiso       1.00
      C133          C  0.7353427  0.8522453  0.3345769    0.00000       Uiso       1.00
      C134          C  0.7392904  0.8259692  0.3454592    0.00000       Uiso       1.00
      C135          C  0.7483645  0.8151019  0.3646352    0.00000       Uiso       1.00
      H123          H  0.7527969  0.7944489  0.3725137    0.00000       Uiso       1.00
      H124          H  0.7367722  0.8873801  0.3338057    0.00000       Uiso       1.00
      C136          C  0.7391999  0.8714551  0.4064964    0.00000       Uiso       1.00
      C137          C  0.7482879  0.8775806  0.4185996    0.00000       Uiso       1.00
      C138          C  0.7183798  0.8643895  0.4245456    0.00000       Uiso       1.00
      C139          C  0.7095785  0.8603931  0.4527299    0.00000       Uiso       1.00
      C140          C  0.7204615  0.8643404  0.4641759    0.00000       Uiso       1.00
      C141          C  0.7396378  0.8734145  0.4467930    0.00000       Uiso       1.00
      H125          H  0.7475171  0.8778462  0.4551349    0.00000       Uiso       1.00
      H126          H  0.7088059  0.8618232  0.4169376    0.00000       Uiso       1.00
      C142          C  0.7814971  0.8642509  0.3577439    0.00000       Uiso       1.00
      C143          C  0.7936001  0.8733389  0.3304275    0.00000       Uiso       1.00
      C144          C  0.7995471  0.8434305  0.3675796    0.00000       Uiso       1.00
      C145          C  0.8277317  0.8346292  0.3521924    0.00000       Uiso       1.00
      C146          C  0.8391773  0.8455124  0.3259166    0.00000       Uiso       1.00
      C147          C  0.8217937  0.8646888  0.3150501    0.00000       Uiso       1.00
      H127          H  0.8301355  0.8725680  0.2943973    0.00000       Uiso       1.00
      H128          H  0.7919394  0.8338566  0.3873271    0.00000       Uiso       1.00
       N41          N  0.7264239  0.8645150  0.3132763    0.00000       Uiso       1.00
      H129          H  0.7244219  0.8510939  0.3090692    0.00000       Uiso       1.00
      H130          H  0.7406943  0.8684838  0.2959192    0.00000       Uiso       1.00
       N42          N  0.6882778  0.8514742  0.4706794    0.00000       Uiso       1.00
      H131          H  0.6840711  0.8494719  0.4903094    0.00000       Uiso       1.00
      H132          H  0.6956013  0.8332437  0.4639080    0.00000       Uiso       1.00
       N43          N  0.8456821  0.8133282  0.3644614    0.00000       Uiso       1.00
      H133          H  0.8653122  0.8091217  0.3510401    0.00000       Uiso       1.00
      H134          H  0.8448005  0.7959709  0.3684296    0.00000       Uiso       1.00
       N44          N  0.7394623  0.9707317  0.3514266    0.00000       Uiso       1.00
      H135          H  0.7260407  0.9903618  0.3494251    0.00000       Uiso       1.00
      H136          H  0.7571406  0.9639610  0.3331958    0.00000       Uiso       1.00
       N45          N  0.7630773  0.8175090  0.3933085    0.00000       Uiso       1.00
      H137          H  0.7663543  0.7980999  0.3975528    0.00000       Uiso       1.00
      H138          H  0.7490263  0.8286434  0.4108492    0.00000       Uiso       1.00
       N46          N  0.7683109  0.8881271  0.4010005    0.00000       Uiso       1.00
      H139          H  0.7725558  0.8914037  0.4128880    0.00000       Uiso       1.00
      H140          H  0.7599112  0.9059507  0.3919493    0.00000       Uiso       1.00
       N47          N  0.6924573  0.9010513  0.3880771    0.00000       Uiso       1.00
      H141          H  0.7058808  0.8814003  0.3900277    0.00000       Uiso       1.00
      H142          H  0.6875517  0.9018354  0.3746738    0.00000       Uiso       1.00
       N48          N  0.7760001  0.8933618  0.3174582    0.00000       Uiso       1.00
      H143          H  0.7878875  0.8976068  0.2980493    0.00000       Uiso       1.00
      H144          H  0.7613758  0.9109021  0.3285933    0.00000       Uiso       1.00
      C148          C  0.3749522  0.3750074  0.1249660    0.00000       Uiso       1.00
      C149          C  0.3267403  0.2939719  0.1455187    0.00000       Uiso       1.00
      C150          C  0.3210396  0.3095070  0.1642020    0.00000       Uiso       1.00
      C151          C  0.3026440  0.3088208  0.1926674    0.00000       Uiso       1.00
      C152          C  0.2898121  0.2930762  0.2023122    0.00000       Uiso       1.00
      C153          C  0.2952646  0.2777892  0.1835766    0.00000       Uiso       1.00
      C154          C  0.3138103  0.2783187  0.1551244    0.00000       Uiso       1.00
      H145          H  0.3184597  0.2665515  0.1402874    0.00000       Uiso       1.00
      H146          H  0.2982298  0.3204769  0.2074194    0.00000       Uiso       1.00
      C155          C  0.4551263  0.3603347  0.0055537    0.00000       Uiso       1.00
      C156          C  0.4836431  0.3473535  0.9957186    0.00000       Uiso       1.00
      C157          C  0.4457406  0.3704054  0.9864723    0.00000       Uiso       1.00
      C158          C  0.4646716  0.3672192  0.9578958    0.00000       Uiso       1.00
      C159          C  0.4932419  0.3539369  0.9480610    0.00000       Uiso       1.00
      C160          C  0.5026199  0.3440301  0.9671357    0.00000       Uiso       1.00
      H147          H  0.5245749  0.3338431  0.9600176    0.00000       Uiso       1.00
      H148          H  0.4237465  0.3807426  0.9937145    0.00000       Uiso       1.00
      C161          C  0.4288668  0.3357688  0.1904650    0.00000       Uiso       1.00
      C162          C  0.4231660  0.3544516  0.2060008    0.00000       Uiso       1.00
      C163          C  0.4472629  0.3073035  0.1911501    0.00000       Uiso       1.00
      C164          C  0.4600954  0.2976581  0.2068943    0.00000       Uiso       1.00
      C165          C  0.4546428  0.3163930  0.2221820    0.00000       Uiso       1.00
      C166          C  0.4360965  0.3448453  0.2216536    0.00000       Uiso       1.00
      H149          H  0.4314470  0.3596818  0.2334214    0.00000       Uiso       1.00
      H150          H  0.4516772  0.2925519  0.1794933    0.00000       Uiso       1.00
      C167          C  0.2947760  0.4944192  0.1396433    0.00000       Uiso       1.00
      C168          C  0.2662582  0.5042534  0.1526257    0.00000       Uiso       1.00
      C169          C  0.3041600  0.5135007  0.1295741    0.00000       Uiso       1.00
      C170          C  0.2852285  0.5420770  0.1327614    0.00000       Uiso       1.00
      C171          C  0.2566583  0.5519112  0.1460441    0.00000       Uiso       1.00
      C172          C  0.2472809  0.5328363  0.1559501    0.00000       Uiso       1.00
      H151          H  0.2253260  0.5399540  0.1661375    0.00000       Uiso       1.00
      H152          H  0.3261541  0.5062588  0.1192366    0.00000       Uiso       1.00
       N49          N  0.4943543  0.3369497  0.0153782    0.00000       Uiso       1.00
      H153          H  0.5150307  0.3283961  0.0046201    0.00000       Uiso       1.00
      H154          H  0.4892589  0.3227070  0.0279919    0.00000       Uiso       1.00
       N50          N  0.4031994  0.3848205  0.2063081    0.00000       Uiso       1.00
      H155          H  0.4018352  0.3947385  0.2184307    0.00000       Uiso       1.00
      H156          H  0.3844872  0.3876813  0.2137116    0.00000       Uiso       1.00
       N51          N  0.2555487  0.4845938  0.1630279    0.00000       Uiso       1.00
      H157          H  0.2348722  0.4953516  0.1715820    0.00000       Uiso       1.00
      H158          H  0.2606446  0.4719795  0.1772702    0.00000       Uiso       1.00
       N52          N  0.3467063  0.2936657  0.1151498    0.00000       Uiso       1.00
      H159          H  0.3541905  0.3057234  0.1114922    0.00000       Uiso       1.00
      H160          H  0.3369052  0.3008475  0.1044840    0.00000       Uiso       1.00
       N53          N  0.4540167  0.3780989  0.9381262    0.00000       Uiso       1.00
      H161          H  0.4699482  0.3742687  0.9186106    0.00000       Uiso       1.00
      H162          H  0.4409129  0.3985919  0.9408330    0.00000       Uiso       1.00
       N54          N  0.4796408  0.2672338  0.2071187    0.00000       Uiso       1.00
      H163          H  0.4870557  0.2636496  0.2192196    0.00000       Uiso       1.00
      H164          H  0.4953839  0.2608714  0.1877612    0.00000       Uiso       1.00
       N55          N  0.2702673  0.2928506  0.2327365    0.00000       Uiso       1.00
      H165          H  0.2628527  0.2807496  0.2363202    0.00000       Uiso       1.00
      H166          H  0.2545239  0.3122078  0.2390996    0.00000       Uiso       1.00
       N56          N  0.2958828  0.5618472  0.1218825    0.00000       Uiso       1.00
      H167          H  0.2799510  0.5813625  0.1257134    0.00000       Uiso       1.00
      H168          H  0.3089864  0.5591410  0.1013894    0.00000       Uiso       1.00
      C173          C  0.3758472  0.3304740  0.1266394    0.00000       Uiso       1.00
      C174          C  0.3606335  0.3577904  0.1357275    0.00000       Uiso       1.00
      C175          C  0.3327479  0.3676260  0.1565477    0.00000       Uiso       1.00
      C176          C  0.3199504  0.3522389  0.1653491    0.00000       Uiso       1.00
      C177          C  0.3347808  0.3259631  0.1544659    0.00000       Uiso       1.00
      C178          C  0.3630309  0.3150965  0.1352896    0.00000       Uiso       1.00
      H169          H  0.3753421  0.2944437  0.1274104    0.00000       Uiso       1.00
      H170          H  0.3206080  0.3873737  0.1661216    0.00000       Uiso       1.00
      C179          C  0.3957256  0.3714513  0.0934305    0.00000       Uiso       1.00
      C180          C  0.4169166  0.3775772  0.0813275    0.00000       Uiso       1.00
      C181          C  0.3929544  0.3643865  0.0753810    0.00000       Uiso       1.00
      C182          C  0.4123370  0.3603913  0.0471966    0.00000       Uiso       1.00
      C183          C  0.4346659  0.3643388  0.0357508    0.00000       Uiso       1.00
      C184          C  0.4364595  0.3734121  0.0531340    0.00000       Uiso       1.00
      H171          H  0.4526805  0.3778444  0.0447922    0.00000       Uiso       1.00
      H172          H  0.3757727  0.3618201  0.0829889    0.00000       Uiso       1.00
      C185          C  0.3892713  0.3642452  0.1421827    0.00000       Uiso       1.00
      C186          C  0.3740581  0.3733324  0.1694994    0.00000       Uiso       1.00
      C187          C  0.4171571  0.3434253  0.1323463    0.00000       Uiso       1.00
      C188          C  0.4299551  0.3346234  0.1477330    0.00000       Uiso       1.00
      C189          C  0.4151251  0.3455056  0.1740093    0.00000       Uiso       1.00
      C190          C  0.3868748  0.3646816  0.1848766    0.00000       Uiso       1.00
      H173          H  0.3745640  0.3725602  0.2055296    0.00000       Uiso       1.00
      H174          H  0.4292969  0.3338522  0.1125983    0.00000       Uiso       1.00
      C191          C  0.3541782  0.4065428  0.1285234    0.00000       Uiso       1.00
      C192          C  0.3329869  0.4186460  0.1223977    0.00000       Uiso       1.00
      C193          C  0.3569491  0.4245920  0.1355890    0.00000       Uiso       1.00
      C194          C  0.3375661  0.4527763  0.1395853    0.00000       Uiso       1.00
      C195          C  0.3152369  0.4642223  0.1356381    0.00000       Uiso       1.00
      C196          C  0.3134437  0.4468395  0.1265639    0.00000       Uiso       1.00
      H175          H  0.2972226  0.4551814  0.1221319    0.00000       Uiso       1.00
      H176          H  0.3741310  0.4169841  0.1381552    0.00000       Uiso       1.00
       N57          N  0.4089855  0.3514733  0.0292466    0.00000       Uiso       1.00
      H177          H  0.4244086  0.3494718  0.0096166    0.00000       Uiso       1.00
      H178          H  0.3907463  0.3657438  0.0301286    0.00000       Uiso       1.00
       N58          N  0.4601747  0.3133230  0.1354632    0.00000       Uiso       1.00
      H179          H  0.4663838  0.3091159  0.1488844    0.00000       Uiso       1.00
      H180          H  0.4710818  0.3206468  0.1177850    0.00000       Uiso       1.00
       N59          N  0.3409173  0.4707259  0.1485041    0.00000       Uiso       1.00
      H181          H  0.3254938  0.4903558  0.1505064    0.00000       Uiso       1.00
      H182          H  0.3591563  0.4698445  0.1342337    0.00000       Uiso       1.00
       N60          N  0.2897311  0.3645079  0.1866500    0.00000       Uiso       1.00
      H183          H  0.2835223  0.3510865  0.1908566    0.00000       Uiso       1.00
      H184          H  0.2788234  0.3821864  0.1793270    0.00000       Uiso       1.00
       N61          N  0.4193403  0.3881232  0.0989271    0.00000       Uiso       1.00
      H185          H  0.4354727  0.3914002  0.0870397    0.00000       Uiso       1.00
      H186          H  0.4222569  0.3740719  0.1135510    0.00000       Uiso       1.00
       N62          N  0.3434887  0.3933549  0.1824694    0.00000       Uiso       1.00
      H187          H  0.3359674  0.3975993  0.2018785    0.00000       Uiso       1.00
      H188          H  0.3340645  0.3849557  0.1828418    0.00000       Uiso       1.00
       N63          N  0.4064164  0.3175046  0.1066165    0.00000       Uiso       1.00
      H189          H  0.4126443  0.3309279  0.1023399    0.00000       Uiso       1.00
      H190          H  0.4105377  0.3125997  0.0890916    0.00000       Uiso       1.00
       N64          N  0.3305635  0.4010469  0.1118510    0.00000       Uiso       1.00
      H191          H  0.3144309  0.4129345  0.1085743    0.00000       Uiso       1.00
      H192          H  0.3276474  0.3864225  0.1259017    0.00000       Uiso       1.00
      C197          C  0.9999568  0.1250128  0.6249708    0.00000       Uiso       1.00
      C198          C  0.0205112  0.9957654  0.6526253    0.00000       Uiso       1.00
      C199          C  0.0391951  0.0056005  0.6396434    0.00000       Uiso       1.00
      C200          C  0.0676601  0.9865190  0.6295734    0.00000       Uiso       1.00
      C201          C  0.0773055  0.9579426  0.6327596    0.00000       Uiso       1.00
      C202          C  0.0585701  0.9481078  0.6460419    0.00000       Uiso       1.00
      C203          C  0.0301175  0.9671825  0.6559487    0.00000       Uiso       1.00
      H193          H  0.0152806  0.9600642  0.6661358    0.00000       Uiso       1.00
      H194          H  0.0824120  0.9937612  0.6192362    0.00000       Uiso       1.00
      C204          C  0.8805431  0.1905117  0.6642094    0.00000       Uiso       1.00
      C205          C  0.8707079  0.2060475  0.6455267    0.00000       Uiso       1.00
      C206          C  0.8614619  0.1911969  0.6926747    0.00000       Uiso       1.00
      C207          C  0.8328851  0.2069411  0.7023202    0.00000       Uiso       1.00
      C208          C  0.8230501  0.2222288  0.6835852    0.00000       Uiso       1.00
      C209          C  0.8421246  0.2217004  0.6551330    0.00000       Uiso       1.00
      H195          H  0.8350064  0.2334681  0.6402965    0.00000       Uiso       1.00
      H196          H  0.8687043  0.1795401  0.7074264    0.00000       Uiso       1.00
      C210          C  0.0654555  0.1396900  0.5055591    0.00000       Uiso       1.00
      C211          C  0.0809910  0.1526723  0.4957248    0.00000       Uiso       1.00
      C212          C  0.0661408  0.1296207  0.4864775    0.00000       Uiso       1.00
      C213          C  0.0818850  0.1328080  0.4579012    0.00000       Uiso       1.00
      C214          C  0.0971724  0.1460908  0.4480670    0.00000       Uiso       1.00
      C215          C  0.0966438  0.1559968  0.4671420    0.00000       Uiso       1.00
      H197          H  0.1084114  0.1661841  0.4600242    0.00000       Uiso       1.00
      H198          H  0.0544843  0.1192832  0.4937193    0.00000       Uiso       1.00
      C216          C  0.0146331  0.1642489  0.6904713    0.00000       Uiso       1.00
      C217          C  0.0276158  0.1455655  0.7060064    0.00000       Uiso       1.00
      C218          C  0.0045633  0.1927142  0.6911575    0.00000       Uiso       1.00
      C219          C  0.0077504  0.2023590  0.7069021    0.00000       Uiso       1.00
      C220          C  0.0210335  0.1836235  0.7221891    0.00000       Uiso       1.00
      C221          C  0.0309401  0.1551712  0.7216595    0.00000       Uiso       1.00
      H199          H  0.0411277  0.1403343  0.7334267    0.00000       Uiso       1.00
      H200          H  0.9942256  0.2074662  0.6795014    0.00000       Uiso       1.00
       N65          N  0.8903673  0.2063549  0.6151578    0.00000       Uiso       1.00
      H201          H  0.8796089  0.2184774  0.6052398    0.00000       Uiso       1.00
      H202          H  0.9029814  0.1870170  0.6076389    0.00000       Uiso       1.00
       N66          N  0.0812982  0.1630746  0.5153845    0.00000       Uiso       1.00
      H203          H  0.0934206  0.1716287  0.5046266    0.00000       Uiso       1.00
      H204          H  0.0887020  0.1472234  0.5266926    0.00000       Uiso       1.00
       N67          N  0.0380187  0.1151966  0.7063125    0.00000       Uiso       1.00
      H205          H  0.0465730  0.1052781  0.7184347    0.00000       Uiso       1.00
      H206          H  0.0522612  0.1076785  0.6869743    0.00000       Uiso       1.00
       N68          N  0.9901428  0.0154250  0.6630284    0.00000       Uiso       1.00
      H207          H  0.9864848  0.0349668  0.6592025    0.00000       Uiso       1.00
      H208          H  0.9794770  0.0128055  0.6834950    0.00000       Uiso       1.00
       N69          N  0.8131154  0.2071655  0.7327445    0.00000       Uiso       1.00
      H209          H  0.7935995  0.2192664  0.7363287    0.00000       Uiso       1.00
      H210          H  0.8158221  0.2145547  0.7431418    0.00000       Uiso       1.00
       N70          N  0.0821096  0.1219291  0.4381311    0.00000       Uiso       1.00
      H211          H  0.0942105  0.1257601  0.4186157    0.00000       Uiso       1.00
      H212          H  0.0627520  0.1313095  0.4417454    0.00000       Uiso       1.00
       N71          N  0.1077302  0.9381729  0.6218799    0.00000       Uiso       1.00
      H213          H  0.1113143  0.9186573  0.6257101    0.00000       Uiso       1.00
      H214          H  0.1140933  0.9417868  0.6312605    0.00000       Uiso       1.00
       N72          N  0.9968709  0.2327833  0.7071277    0.00000       Uiso       1.00
      H215          H  0.0007017  0.2363670  0.7192287    0.00000       Uiso       1.00
      H216          H  0.9763775  0.2431803  0.7145174    0.00000       Uiso       1.00
      C222          C  0.0016309  0.0813743  0.6224009    0.00000       Uiso       1.00
      C223          C  0.0107188  0.0934773  0.6285270    0.00000       Uiso       1.00
      C224          C  0.0315394  0.0754278  0.6355919    0.00000       Uiso       1.00
      C225          C  0.0403414  0.0472433  0.6395871    0.00000       Uiso       1.00
      C226          C  0.0294584  0.0357975  0.6356394    0.00000       Uiso       1.00
      C227          C  0.0102818  0.0531807  0.6265659    0.00000       Uiso       1.00
      H217          H  0.0024027  0.0448389  0.6221335    0.00000       Uiso       1.00
      H218          H  0.0411131  0.0830357  0.6381584    0.00000       Uiso       1.00
      C228          C  0.9684209  0.1422294  0.6357329    0.00000       Uiso       1.00
      C229          C  0.9563174  0.1695462  0.6266458    0.00000       Uiso       1.00
      C230          C  0.9503716  0.1323930  0.6565530    0.00000       Uiso       1.00
      C231          C  0.9221867  0.1477798  0.6653550    0.00000       Uiso       1.00
      C232          C  0.9107405  0.1740560  0.6544726    0.00000       Uiso       1.00
      C233          C  0.9281235  0.1849233  0.6352966    0.00000       Uiso       1.00
      H219          H  0.9197813  0.2055763  0.6274181    0.00000       Uiso       1.00
      H220          H  0.9579799  0.1126451  0.6661261    0.00000       Uiso       1.00
      C234          C  0.0171733  0.1285701  0.5934354    0.00000       Uiso       1.00
      C235          C  0.0444902  0.1224445  0.5813322    0.00000       Uiso       1.00
      C236          C  0.0073367  0.1356357  0.5753862    0.00000       Uiso       1.00
      C237          C  0.0227235  0.1396320  0.5472019    0.00000       Uiso       1.00
      C238          C  0.0489999  0.1356848  0.5357559    0.00000       Uiso       1.00
      C239          C  0.0598673  0.1266107  0.5531388    0.00000       Uiso       1.00
      H221          H  0.0805204  0.1221789  0.5447969    0.00000       Uiso       1.00
      H222          H  0.9875888  0.1382019  0.5829942    0.00000       Uiso       1.00
      C240          C  0.0035138  0.1357743  0.6421878    0.00000       Uiso       1.00
      C241          C  0.9973885  0.1266862  0.6695043    0.00000       Uiso       1.00
      C242          C  0.0105790  0.1565946  0.6323522    0.00000       Uiso       1.00
      C243          C  0.0145751  0.1653960  0.6477394    0.00000       Uiso       1.00
      C244          C  0.0106281  0.1545127  0.6740152    0.00000       Uiso       1.00
      C245          C  0.0015543  0.1353364  0.6848817    0.00000       Uiso       1.00
      H223          H  0.9971225  0.1274572  0.7055345    0.00000       Uiso       1.00
      H224          H  0.0131450  0.1661685  0.6126047    0.00000       Uiso       1.00
       N73          N  0.9042371  0.1355101  0.6866555    0.00000       Uiso       1.00
      H225          H  0.8846068  0.1489313  0.6908626    0.00000       Uiso       1.00
      H226          H  0.9051191  0.1315413  0.7040127    0.00000       Uiso       1.00
       N74          N  0.0104535  0.1485509  0.5292524    0.00000       Uiso       1.00
      H227          H  0.0238746  0.1505532  0.5096224    0.00000       Uiso       1.00
      H228          H  0.9927751  0.1667815  0.5360238    0.00000       Uiso       1.00
       N75          N  0.0234935  0.1866969  0.6354704    0.00000       Uiso       1.00
      H229          H  0.0254957  0.1909035  0.6488917    0.00000       Uiso       1.00
      H230          H  0.0092227  0.2040542  0.6315022    0.00000       Uiso       1.00
       N76          N  0.0616426  0.0292934  0.6485053    0.00000       Uiso       1.00
      H231          H  0.0658496  0.0096634  0.6505067    0.00000       Uiso       1.00
      H232          H  0.0543195  0.0360641  0.6667360    0.00000       Uiso       1.00
       N77          N  0.9739166  0.1825162  0.6066234    0.00000       Uiso       1.00
      H233          H  0.9620289  0.2019252  0.6023790    0.00000       Uiso       1.00
      H234          H  0.9885408  0.1713818  0.5890827    0.00000       Uiso       1.00
       N78          N  0.0574604  0.1118980  0.5989314    0.00000       Uiso       1.00
      H235          H  0.0768695  0.1086214  0.5870439    0.00000       Uiso       1.00
      H236          H  0.0578331  0.0940745  0.6079826    0.00000       Uiso       1.00
       N79          N  0.9816078  0.0989738  0.6118548    0.00000       Uiso       1.00
      H237          H  0.9773308  0.1186249  0.6099042    0.00000       Uiso       1.00
      H238          H  0.9640830  0.0981898  0.6252580    0.00000       Uiso       1.00
       N80          N  0.9868420  0.1066634  0.6824736    0.00000       Uiso       1.00
      H239          H  0.9835656  0.1024183  0.7018825    0.00000       Uiso       1.00
      H240          H  0.0008930  0.0891231  0.6713386    0.00000       Uiso       1.00
      C246          C  0.2499539  0.0000131  0.9999461    0.00000       Uiso       1.00
      C247          C  0.3792003  0.9518034  0.8912529    0.00000       Uiso       1.00
      C248          C  0.3693661  0.9461020  0.9197703    0.00000       Uiso       1.00
      C249          C  0.3884480  0.9277061  0.9291540    0.00000       Uiso       1.00
      C250          C  0.4170245  0.9148746  0.9102225    0.00000       Uiso       1.00
      C251          C  0.4268588  0.9203278  0.8816528    0.00000       Uiso       1.00
      C252          C  0.4077834  0.9388739  0.8722757    0.00000       Uiso       1.00
      H241          H  0.4149010  0.9435239  0.8503211    0.00000       Uiso       1.00
      H242          H  0.3812062  0.9232912  0.9511477    0.00000       Uiso       1.00
      C253          C  0.1844518  0.0801888  0.9460354    0.00000       Uiso       1.00
      C254          C  0.1689161  0.1087063  0.9517368    0.00000       Uiso       1.00
      C255          C  0.1837658  0.0708052  0.9276395    0.00000       Uiso       1.00
      C256          C  0.1680208  0.0897366  0.9148079    0.00000       Uiso       1.00
      C257          C  0.1527333  0.1183063  0.9202612    0.00000       Uiso       1.00
      C258          C  0.1532626  0.1276834  0.9388073    0.00000       Uiso       1.00
      H243          H  0.1414949  0.1496380  0.9434573    0.00000       Uiso       1.00
      H244          H  0.1954225  0.0488114  0.9232246    0.00000       Uiso       1.00
      C259          C  0.2352812  0.0539231  0.0801221    0.00000       Uiso       1.00
      C260          C  0.2222994  0.0482217  0.1086396    0.00000       Uiso       1.00
      C261          C  0.2453509  0.0723190  0.0707385    0.00000       Uiso       1.00
      C262          C  0.2421644  0.0851506  0.0896699    0.00000       Uiso       1.00
      C263          C  0.2288821  0.0796973  0.1182397    0.00000       Uiso       1.00
      C264          C  0.2189757  0.0611512  0.1276167    0.00000       Uiso       1.00
      H245          H  0.2087888  0.0565013  0.1495713    0.00000       Uiso       1.00
      H246          H  0.2556880  0.0767339  0.0487448    0.00000       Uiso       1.00
      C265          C  0.2107172  0.9198363  0.0538571    0.00000       Uiso       1.00
      C266          C  0.2294006  0.8913189  0.0481556    0.00000       Uiso       1.00
      C267          C  0.1822516  0.9292199  0.0722530    0.00000       Uiso       1.00
      C268          C  0.1726066  0.9102885  0.0850845    0.00000       Uiso       1.00
      C269          C  0.1913421  0.8817188  0.0796312    0.00000       Uiso       1.00
      C270          C  0.2197946  0.8723418  0.0610851    0.00000       Uiso       1.00
      H247          H  0.2346316  0.8503872  0.0564352    0.00000       Uiso       1.00
      H248          H  0.1674996  0.9512137  0.0766678    0.00000       Uiso       1.00
       N81          N  0.1686097  0.1194153  0.9717033    0.00000       Uiso       1.00
      H249          H  0.1564871  0.1400915  0.9730681    0.00000       Uiso       1.00
      H250          H  0.1879481  0.1143199  0.9649792    0.00000       Uiso       1.00
       N82          N  0.2118967  0.0282553  0.1193486    0.00000       Uiso       1.00
      H251          H  0.2033431  0.0268905  0.1400248    0.00000       Uiso       1.00
      H252          H  0.2277479  0.0095435  0.1109007    0.00000       Uiso       1.00
       N83          N  0.2597696  0.8806099  0.0281892    0.00000       Uiso       1.00
      H253          H  0.2696882  0.8599336  0.0268244    0.00000       Uiso       1.00
      H254          H  0.2672884  0.8857052  0.0349133    0.00000       Uiso       1.00
       N84          N  0.3595403  0.9717699  0.8805438    0.00000       Uiso       1.00
      H255          H  0.3399984  0.9792536  0.8964279    0.00000       Uiso       1.00
      H256          H  0.3621592  0.9619694  0.8672586    0.00000       Uiso       1.00
       N85          N  0.1677955  0.0790826  0.8952627    0.00000       Uiso       1.00
      H257          H  0.1556941  0.0950143  0.8878486    0.00000       Uiso       1.00
      H258          H  0.1604061  0.0659788  0.9053584    0.00000       Uiso       1.00
       N86          N  0.2530437  0.1046957  0.0790160    0.00000       Uiso       1.00
      H259          H  0.2492134  0.1121100  0.0949477    0.00000       Uiso       1.00
      H260          H  0.2436628  0.1204391  0.0690395    0.00000       Uiso       1.00
       N87          N  0.4367952  0.8953294  0.9208765    0.00000       Uiso       1.00
      H261          H  0.4563107  0.8879152  0.9049448    0.00000       Uiso       1.00
      H262          H  0.4331811  0.8795860  0.9308529    0.00000       Uiso       1.00
       N88          N  0.1421820  0.9209425  0.1046297    0.00000       Uiso       1.00
      H263          H  0.1385982  0.9050108  0.1120439    0.00000       Uiso       1.00
      H264          H  0.1317844  0.9340464  0.0945340    0.00000       Uiso       1.00
      C271          C  0.2935926  0.0009088  0.9579817    0.00000       Uiso       1.00
      C272          C  0.2814888  0.9856945  0.9791722    0.00000       Uiso       1.00
      C273          C  0.2995386  0.9578091  0.9819423    0.00000       Uiso       1.00
      C274          C  0.3277232  0.9450121  0.9625594    0.00000       Uiso       1.00
      C275          C  0.3391688  0.9598426  0.9402311    0.00000       Uiso       1.00
      C276          C  0.3217855  0.9880927  0.9384385    0.00000       Uiso       1.00
      H265          H  0.3301280  0.0004043  0.9222181    0.00000       Uiso       1.00
      H266          H  0.2919308  0.9456689  0.9991235    0.00000       Uiso       1.00
      C277          C  0.2327364  0.0207870  0.9856279    0.00000       Uiso       1.00
      C278          C  0.2054207  0.0419768  0.0008421    0.00000       Uiso       1.00
      C279          C  0.2425721  0.0180167  0.9577425    0.00000       Uiso       1.00
      C280          C  0.2271845  0.0373996  0.9449455    0.00000       Uiso       1.00
      C281          C  0.2009083  0.0597280  0.9597760    0.00000       Uiso       1.00
      C282          C  0.1900417  0.0615207  0.9880260    0.00000       Uiso       1.00
      H267          H  0.1693898  0.0777405  0.0003376    0.00000       Uiso       1.00
      H268          H  0.2623200  0.0008354  0.9456024    0.00000       Uiso       1.00
      C283          C  0.2463987  0.0143305  0.0207202    0.00000       Uiso       1.00
      C284          C  0.2525242  0.9991164  0.0419107    0.00000       Uiso       1.00
      C285          C  0.2393331  0.0422160  0.0179501    0.00000       Uiso       1.00
      C286          C  0.2353377  0.0550130  0.0373330    0.00000       Uiso       1.00
      C287          C  0.2392856  0.0401824  0.0596613    0.00000       Uiso       1.00
      C288          C  0.2483596  0.0119325  0.0614539    0.00000       Uiso       1.00
      H269          H  0.2527911  0.9996209  0.0776746    0.00000       Uiso       1.00
      H270          H  0.2367664  0.0543562  0.0007689    0.00000       Uiso       1.00
      C289          C  0.2391925  0.9792382  0.0142645    0.00000       Uiso       1.00
      C290          C  0.2482789  0.9580484  0.9990503    0.00000       Uiso       1.00
      C291          C  0.2183725  0.9820084  0.0421500    0.00000       Uiso       1.00
      C292          C  0.2095709  0.9626254  0.0549470    0.00000       Uiso       1.00
      C293          C  0.2204536  0.9402971  0.0401164    0.00000       Uiso       1.00
      C294          C  0.2396295  0.9385046  0.0118664    0.00000       Uiso       1.00
      H271          H  0.2475072  0.9222848  0.9995548    0.00000       Uiso       1.00
      H272          H  0.2087990  0.9991896  0.0542901    0.00000       Uiso       1.00
       N89          N  0.2394536  0.0340491  0.9147263    0.00000       Uiso       1.00
      H273          H  0.2260319  0.0494724  0.9085179    0.00000       Uiso       1.00
      H274          H  0.2434220  0.0158103  0.9116392    0.00000       Uiso       1.00
       N90          N  0.2264188  0.0852323  0.0339828    0.00000       Uiso       1.00
      H275          H  0.2244172  0.0914407  0.0494060    0.00000       Uiso       1.00
      H276          H  0.2081878  0.0961395  0.0345353    0.00000       Uiso       1.00
       N91          N  0.1882703  0.9659758  0.0851662    0.00000       Uiso       1.00
      H277          H  0.1840635  0.9505526  0.0913746    0.00000       Uiso       1.00
      H278          H  0.1709127  0.9842147  0.0882534    0.00000       Uiso       1.00
       N92          N  0.3456734  0.9147928  0.9659097    0.00000       Uiso       1.00
      H279          H  0.3653035  0.9085844  0.9504864    0.00000       Uiso       1.00
      H280          H  0.3389023  0.9038856  0.9653571    0.00000       Uiso       1.00
       N93          N  0.1924514  0.0443996  0.0314111    0.00000       Uiso       1.00
      H281          H  0.1730422  0.0605316  0.0389329    0.00000       Uiso       1.00
      H282          H  0.2035864  0.0473157  0.0349006    0.00000       Uiso       1.00
       N94          N  0.2630707  0.9685473  0.0443335    0.00000       Uiso       1.00
      H283          H  0.2663478  0.9610255  0.0604656    0.00000       Uiso       1.00
      H284          H  0.2808940  0.9591236  0.0268826    0.00000       Uiso       1.00
       N95          N  0.2759928  0.0314778  0.9555591    0.00000       Uiso       1.00
      H285          H  0.2563417  0.0377054  0.9709334    0.00000       Uiso       1.00
      H286          H  0.2767763  0.0355997  0.9372507    0.00000       Uiso       1.00
       N96          N  0.2683013  0.9556258  0.9684813    0.00000       Uiso       1.00
      H287          H  0.2725459  0.9394938  0.9609595    0.00000       Uiso       1.00
      H288          H  0.2858420  0.9527096  0.9649917    0.00000       Uiso       1.00
      C295          C  0.6389029  0.6089599  0.3219978    0.00000       Uiso       1.00
      C296          C  0.6542156  0.6150040  0.2945668    0.00000       Uiso       1.00
      C297          C  0.6571582  0.6067899  0.2727843    0.00000       Uiso       1.00
      C298          C  0.6735828  0.6119921  0.2455105    0.00000       Uiso       1.00
      C299          C  0.6889206  0.6239237  0.2392305    0.00000       Uiso       1.00
      C300          C  0.6859943  0.6317459  0.2613904    0.00000       Uiso       1.00
      C301          C  0.6672183  0.6295016  0.2889822    0.00000       Uiso       1.00
        O1          O  0.6259483  0.5939615  0.3309576    0.00000       Uiso       1.00
      H289          H  0.6995956  0.6380924  0.2572311    0.00000       Uiso       1.00
      C302          C  0.7113138  0.7356957  0.3049074    0.00000       Uiso       1.00
      C303          C  0.6992011  0.7203979  0.3109817    0.00000       Uiso       1.00
      C304          C  0.6804162  0.7174917  0.3380612    0.00000       Uiso       1.00
      C305          C  0.6693593  0.7012098  0.3437897    0.00000       Uiso       1.00
      C306          C  0.6782140  0.6859943  0.3228052    0.00000       Uiso       1.00
      C307          C  0.6975114  0.6888262  0.2957330    0.00000       Uiso       1.00
      C308          C  0.7065117  0.7074584  0.2891097    0.00000       Uiso       1.00
        O2          O  0.7071565  0.7486731  0.3240046    0.00000       Uiso       1.00
      H290          H  0.6742046  0.7281103  0.3546800    0.00000       Uiso       1.00
      H291          H  0.6540505  0.7005334  0.3647649    0.00000       Uiso       1.00
      H292          H  0.7068286  0.6752955  0.2799304    0.00000       Uiso       1.00
      C309          C  0.7665112  0.6633378  0.1229348    0.00000       Uiso       1.00
      C310          C  0.7604846  0.6754419  0.1442607    0.00000       Uiso       1.00
      C311          C  0.7688046  0.6942093  0.1388583    0.00000       Uiso       1.00
      C312          C  0.7634971  0.7052654  0.1604547    0.00000       Uiso       1.00
      C313          C  0.7513523  0.6964273  0.1878047    0.00000       Uiso       1.00
      C314          C  0.7435396  0.6771582  0.1927539    0.00000       Uiso       1.00
      C315          C  0.7459065  0.6681679  0.1717448    0.00000       Uiso       1.00
        O3          O  0.7814013  0.6676160  0.0950326    0.00000       Uiso       1.00
      H293          H  0.7792177  0.7003905  0.1178216    0.00000       Uiso       1.00
      H294          H  0.7691932  0.7205527  0.1554375    0.00000       Uiso       1.00
      H295          H  0.7370347  0.6678265  0.2127578    0.00000       Uiso       1.00
      C316          C  0.7584522  0.6447917  0.1281761    0.00000       Uiso       1.00
      C317          C  0.7429160  0.6380613  0.1551552    0.00000       Uiso       1.00
      C318          C  0.7346025  0.6192499  0.1606359    0.00000       Uiso       1.00
      C319          C  0.7180817  0.6138057  0.1877396    0.00000       Uiso       1.00
      C320          C  0.7079552  0.6283492  0.2099611    0.00000       Uiso       1.00
      C321          C  0.7162163  0.6474820  0.2040486    0.00000       Uiso       1.00
      C322          C  0.7352949  0.6509874  0.1772535    0.00000       Uiso       1.00
        O4          O  0.7666197  0.6349985  0.1043079    0.00000       Uiso       1.00
      H296          H  0.7065064  0.6609195  0.2201128    0.00000       Uiso       1.00
      C323          C  0.7298362  0.7384981  0.2783077    0.00000       Uiso       1.00
      C324          C  0.7365795  0.7270486  0.2560583    0.00000       Uiso       1.00
      C325          C  0.7553865  0.7299510  0.2289918    0.00000       Uiso       1.00
      C326          C  0.7610453  0.7192185  0.2069457    0.00000       Uiso       1.00
      C327          C  0.7466695  0.7069312  0.2112976    0.00000       Uiso       1.00
      C328          C  0.7274445  0.7046458  0.2386738    0.00000       Uiso       1.00
      C329          C  0.7237467  0.7125107  0.2613112    0.00000       Uiso       1.00
        O5          O  0.7397768  0.7541122  0.2765351    0.00000       Uiso       1.00
      H297          H  0.7658271  0.7403593  0.2250941    0.00000       Uiso       1.00
      H298          H  0.7765725  0.7208502  0.1865685    0.00000       Uiso       1.00
      H299          H  0.7141053  0.6981591  0.2423652    0.00000       Uiso       1.00
      C330          C  0.6361489  0.6170291  0.3433098    0.00000       Uiso       1.00
      C331          C  0.6475933  0.6325299  0.3386107    0.00000       Uiso       1.00
      C332          C  0.6446851  0.6407822  0.3603298    0.00000       Uiso       1.00
      C333          C  0.6554093  0.6571707  0.3552769    0.00000       Uiso       1.00
      C334          C  0.6677066  0.6671909  0.3286159    0.00000       Uiso       1.00
      C335          C  0.6700095  0.6590276  0.3070975    0.00000       Uiso       1.00
      C336          C  0.6621395  0.6400918  0.3112631    0.00000       Uiso       1.00
        O6          O  0.6206238  0.6088184  0.3689062    0.00000       Uiso       1.00
      H300          H  0.6342710  0.6342219  0.3811637    0.00000       Uiso       1.00
      H301          H  0.6537606  0.6620122  0.3724497    0.00000       Uiso       1.00
      H302          H  0.6765043  0.6686440  0.2872559    0.00000       Uiso       1.00
        B1          B  0.6144058  0.5940782  0.3606879    0.00000       Uiso       1.00
        B2          B  0.7252856  0.7603692  0.3057137    0.00000       Uiso       1.00
        B3          B  0.7811912  0.6495475  0.0834809    0.00000       Uiso       1.00
      H303          H  0.6465768  0.5965176  0.2768372    0.00000       Uiso       1.00
      H304          H  0.6743148  0.6062790  0.2295069    0.00000       Uiso       1.00
      H305          H  0.7410656  0.6085542  0.1439598    0.00000       Uiso       1.00
      H306          H  0.7131538  0.5983348  0.1909738    0.00000       Uiso       1.00
      C337          C  0.5698819  0.3910652  0.6779341    0.00000       Uiso       1.00
      C338          C  0.5638077  0.3850211  0.7053651    0.00000       Uiso       1.00
      C339          C  0.5367537  0.3932352  0.7271475    0.00000       Uiso       1.00
      C340          C  0.5311067  0.3880330  0.7544213    0.00000       Uiso       1.00
      C341          C  0.5520960  0.3761015  0.7607013    0.00000       Uiso       1.00
      C342          C  0.5791520  0.3682792  0.7385414    0.00000       Uiso       1.00
      C343          C  0.5857235  0.3705235  0.7109496    0.00000       Uiso       1.00
        O7          O  0.5508887  0.4060636  0.6689743    0.00000       Uiso       1.00
      H307          H  0.5949405  0.3619328  0.7427006    0.00000       Uiso       1.00
      C344          C  0.7519385  0.2643294  0.6950244    0.00000       Uiso       1.00
      C345          C  0.7306023  0.2796272  0.6889501    0.00000       Uiso       1.00
      C346          C  0.7359908  0.2825334  0.6618707    0.00000       Uiso       1.00
      C347          C  0.7143803  0.2988154  0.6561422    0.00000       Uiso       1.00
      C348          C  0.6870350  0.3140309  0.6771266    0.00000       Uiso       1.00
      C349          C  0.6820922  0.3111989  0.7041988    0.00000       Uiso       1.00
      C350          C  0.7031014  0.2925667  0.7108222    0.00000       Uiso       1.00
        O8          O  0.7798560  0.2513520  0.6759272    0.00000       Uiso       1.00
      H308          H  0.7570165  0.2719149  0.6452519    0.00000       Uiso       1.00
      H309          H  0.7193704  0.2994918  0.6351669    0.00000       Uiso       1.00
      H310          H  0.6620759  0.3247297  0.7200014    0.00000       Uiso       1.00
      C351          C  0.5528049  0.3366874  0.8769969    0.00000       Uiso       1.00
      C352          C  0.5802084  0.3245833  0.8556712    0.00000       Uiso       1.00
      C353          C  0.6018934  0.3058159  0.8610735    0.00000       Uiso       1.00
      C354          C  0.6292385  0.2947597  0.8394772    0.00000       Uiso       1.00
      C355          C  0.6356056  0.3035979  0.8121271    0.00000       Uiso       1.00
      C356          C  0.6134729  0.3228669  0.8071779    0.00000       Uiso       1.00
      C357          C  0.5858405  0.3318572  0.8281870    0.00000       Uiso       1.00
        O9          O  0.5440708  0.3324092  0.9048993    0.00000       Uiso       1.00
      H311          H  0.5974509  0.2996347  0.8821102    0.00000       Uiso       1.00
      H312          H  0.6452046  0.2794724  0.8444944    0.00000       Uiso       1.00
      H313          H  0.6176404  0.3321986  0.7871740    0.00000       Uiso       1.00
      C358          C  0.5314411  0.3552335  0.8717557    0.00000       Uiso       1.00
      C359          C  0.5361536  0.3619638  0.8447766    0.00000       Uiso       1.00
      C360          C  0.5145094  0.3807752  0.8392959    0.00000       Uiso       1.00
      C361          C  0.5196482  0.3862194  0.8121922    0.00000       Uiso       1.00
      C362          C  0.5462867  0.3716759  0.7899707    0.00000       Uiso       1.00
      C363          C  0.5677681  0.3525431  0.7958832    0.00000       Uiso       1.00
      C364          C  0.5635570  0.3490377  0.8226783    0.00000       Uiso       1.00
       O10          O  0.5059471  0.3650267  0.8956239    0.00000       Uiso       1.00
      H314          H  0.5875601  0.3391055  0.7798190    0.00000       Uiso       1.00
      C365          C  0.7466635  0.2615271  0.7216242    0.00000       Uiso       1.00
      C366          C  0.7197079  0.2729765  0.7438735    0.00000       Uiso       1.00
      C367          C  0.7143508  0.2700741  0.7709400    0.00000       Uiso       1.00
      C368          C  0.6872309  0.2808067  0.7929861    0.00000       Uiso       1.00
      C369          C  0.6649198  0.2930939  0.7886342    0.00000       Uiso       1.00
      C370          C  0.6707855  0.2953794  0.7612580    0.00000       Uiso       1.00
      C371          C  0.6975901  0.2875144  0.7386206    0.00000       Uiso       1.00
       O11          O  0.7704456  0.2459130  0.7233967    0.00000       Uiso       1.00
      H315          H  0.7313020  0.2596658  0.7748377    0.00000       Uiso       1.00
      H316          H  0.6840125  0.2791750  0.8133634    0.00000       Uiso       1.00
      H317          H  0.6546510  0.3018660  0.7575666    0.00000       Uiso       1.00
      C372          C  0.5965093  0.3829961  0.6566221    0.00000       Uiso       1.00
      C373          C  0.6187554  0.3674952  0.6613211    0.00000       Uiso       1.00
      C374          C  0.6458186  0.3592429  0.6396021    0.00000       Uiso       1.00
      C375          C  0.6678785  0.3428545  0.6446549    0.00000       Uiso       1.00
      C376          C  0.6635349  0.3328342  0.6713160    0.00000       Uiso       1.00
      C377          C  0.6361561  0.3409975  0.6928343    0.00000       Uiso       1.00
      C378          C  0.6135159  0.3599333  0.6886688    0.00000       Uiso       1.00
       O12          O  0.5983698  0.3912067  0.6310256    0.00000       Uiso       1.00
      H318          H  0.6496781  0.3658032  0.6187681    0.00000       Uiso       1.00
      H319          H  0.6882440  0.3380130  0.6274821    0.00000       Uiso       1.00
      H320          H  0.6324257  0.3313811  0.7126759    0.00000       Uiso       1.00
        B4          B  0.5691932  0.4059470  0.6392440    0.00000       Uiso       1.00
        B5          B  0.7913902  0.2396560  0.6942182    0.00000       Uiso       1.00
        B6          B  0.5142406  0.3504777  0.9164509    0.00000       Uiso       1.00
      H321          H  0.5199529  0.4035076  0.7230946    0.00000       Uiso       1.00
      H322          H  0.5101219  0.3937461  0.7704250    0.00000       Uiso       1.00
      H323          H  0.4936006  0.3914709  0.8559720    0.00000       Uiso       1.00
      H324          H  0.5024836  0.4016903  0.8089580    0.00000       Uiso       1.00
      C379          C  0.6078006  0.1230430  0.3391734    0.00000       Uiso       1.00
      C380          C  0.5906233  0.1443802  0.3289360    0.00000       Uiso       1.00
      C381          C  0.5824844  0.1390332  0.3153709    0.00000       Uiso       1.00
      C382          C  0.5663773  0.1606428  0.3041303    0.00000       Uiso       1.00
      C383          C  0.5594842  0.1879113  0.3047023    0.00000       Uiso       1.00
      C384          C  0.5681692  0.1928235  0.3181554    0.00000       Uiso       1.00
      C385          C  0.5817972  0.1718455  0.3321350    0.00000       Uiso       1.00
       O13          O  0.6188330  0.0951505  0.3369938    0.00000       Uiso       1.00
      H325          H  0.5885788  0.1180364  0.3136788    0.00000       Uiso       1.00
      H326          H  0.5596353  0.1557191  0.2948441    0.00000       Uiso       1.00
      H327          H  0.5657723  0.2127640  0.3163864    0.00000       Uiso       1.00
      C386          C  0.5357460  0.3220646  0.3940906    0.00000       Uiso       1.00
      C387          C  0.5459841  0.2946501  0.3899299    0.00000       Uiso       1.00
      C388          C  0.5595497  0.2729466  0.4034153    0.00000       Uiso       1.00
      C389          C  0.5707908  0.2455989  0.3979124    0.00000       Uiso       1.00
      C390          C  0.5702186  0.2392777  0.3775370    0.00000       Uiso       1.00
      C391          C  0.5567653  0.2614152  0.3639402    0.00000       Uiso       1.00
      C392          C  0.5427853  0.2890227  0.3712904    0.00000       Uiso       1.00
       O14          O  0.5379253  0.3309174  0.4109512    0.00000       Uiso       1.00
      H328          H  0.5612414  0.2773500  0.4183176    0.00000       Uiso       1.00
      H329          H  0.5800774  0.2295713  0.4095777    0.00000       Uiso       1.00
      H330          H  0.5585344  0.2572492  0.3463964    0.00000       Uiso       1.00
      C393          C  0.4808293  0.3049264  0.2671215    0.00000       Uiso       1.00
      C394          C  0.4849898  0.3110041  0.2842982    0.00000       Uiso       1.00
      C395          C  0.4715039  0.3380549  0.2924371    0.00000       Uiso       1.00
      C396          C  0.4770068  0.3437930  0.3085440    0.00000       Uiso       1.00
      C397          C  0.4973828  0.3228458  0.3154367    0.00000       Uiso       1.00
      C398          C  0.5109802  0.2957960  0.3067515    0.00000       Uiso       1.00
      C399          C  0.5036298  0.2891662  0.2931239    0.00000       Uiso       1.00
       O15          O  0.4639682  0.3239657  0.2560897    0.00000       Uiso       1.00
      H331          H  0.4566009  0.3546494  0.2863431    0.00000       Uiso       1.00
      H332          H  0.4653413  0.3647446  0.3152859    0.00000       Uiso       1.00
      H333          H  0.5285244  0.2800217  0.3091480    0.00000       Uiso       1.00
      C400          C  0.4945340  0.2784061  0.2586640    0.00000       Uiso       1.00
      C401          C  0.5119272  0.2561529  0.2682223    0.00000       Uiso       1.00
      C402          C  0.5254036  0.2290915  0.2601174    0.00000       Uiso       1.00
      C403          C  0.5416240  0.2070293  0.2710180    0.00000       Uiso       1.00
      C404          C  0.5433517  0.2113882  0.2915555    0.00000       Uiso       1.00
      C405          C  0.5293660  0.2387613  0.2996770    0.00000       Uiso       1.00
      C406          C  0.5154186  0.2613873  0.2868396    0.00000       Uiso       1.00
       O16          O  0.4882875  0.2766803  0.2411218    0.00000       Uiso       1.00
      H334          H  0.5233654  0.2252049  0.2452099    0.00000       Uiso       1.00
      H335          H  0.5525235  0.1866291  0.2633818    0.00000       Uiso       1.00
      H336          H  0.5279038  0.2424714  0.3172337    0.00000       Uiso       1.00
      C407          C  0.5229297  0.3433378  0.3803866    0.00000       Uiso       1.00
      C408          C  0.5180689  0.3386400  0.3629936    0.00000       Uiso       1.00
      C409          C  0.5044832  0.3603302  0.3495179    0.00000       Uiso       1.00
      C410          C  0.4986407  0.3552718  0.3332975    0.00000       Uiso       1.00
      C411          C  0.5047275  0.3286479  0.3315693    0.00000       Uiso       1.00
      C412          C  0.5181155  0.3071388  0.3455547    0.00000       Uiso       1.00
      C413          C  0.5267946  0.3112972  0.3595020    0.00000       Uiso       1.00
       O17          O  0.5149578  0.3688518  0.3866330    0.00000       Uiso       1.00
      H337          H  0.4985583  0.3811622  0.3515569    0.00000       Uiso       1.00
      H338          H  0.4891393  0.3724091  0.3223987    0.00000       Uiso       1.00
      H339          H  0.5203633  0.2873344  0.3470167    0.00000       Uiso       1.00
      C414          C  0.6162584  0.1282899  0.3519894    0.00000       Uiso       1.00
      C415          C  0.6066998  0.1552412  0.3568504    0.00000       Uiso       1.00
      C416          C  0.6148049  0.1606129  0.3704356    0.00000       Uiso       1.00
      C417          C  0.6039037  0.1877338  0.3762781    0.00000       Uiso       1.00
      C418          C  0.5833657  0.2099985  0.3701922    0.00000       Uiso       1.00
      C419          C  0.5752438  0.2041342  0.3568049    0.00000       Uiso       1.00
      C420          C  0.5880817  0.1773498  0.3481255    0.00000       Uiso       1.00
       O18          O  0.6338014  0.1045012  0.3599604    0.00000       Uiso       1.00
      H340          H  0.6297128  0.1436681  0.3763599    0.00000       Uiso       1.00
      H341          H  0.6115400  0.1909974  0.3857789    0.00000       Uiso       1.00
      H342          H  0.5576866  0.2202285  0.3545577    0.00000       Uiso       1.00
        B7          B  0.6352969  0.0835775  0.3503003    0.00000       Uiso       1.00
        B8          B  0.5246180  0.3606874  0.4060611    0.00000       Uiso       1.00
        B9          B  0.4688587  0.3057683  0.2396265    0.00000       Uiso       1.00
      C421          C  0.0700375  0.8769821  0.6607584    0.00000       Uiso       1.00
      C422          C  0.0639600  0.8556449  0.6709959    0.00000       Uiso       1.00
      C423          C  0.0369089  0.8609919  0.6845610    0.00000       Uiso       1.00
      C424          C  0.0311708  0.8393824  0.6958016    0.00000       Uiso       1.00
      C425          C  0.0521184  0.8121139  0.6952294    0.00000       Uiso       1.00
      C426          C  0.0791686  0.8072017  0.6817764    0.00000       Uiso       1.00
      C427          C  0.0857982  0.8281796  0.6677969    0.00000       Uiso       1.00
       O19          O  0.0509977  0.9048746  0.6629380    0.00000       Uiso       1.00
      H343          H  0.0203145  0.8819887  0.6862530    0.00000       Uiso       1.00
      H344          H  0.0102189  0.8443061  0.7050878    0.00000       Uiso       1.00
      H345          H  0.0949434  0.7872611  0.6835454    0.00000       Uiso       1.00
      C428          C  0.2519222  0.6779605  0.6058412    0.00000       Uiso       1.00
      C429          C  0.2305849  0.7053751  0.6100019    0.00000       Uiso       1.00
      C430          C  0.2359324  0.7270786  0.5965165    0.00000       Uiso       1.00
      C431          C  0.2143229  0.7544262  0.6020194    0.00000       Uiso       1.00
      C432          C  0.1870541  0.7607474  0.6223947    0.00000       Uiso       1.00
      C433          C  0.1821414  0.7386099  0.6359916    0.00000       Uiso       1.00
      C434          C  0.2031192  0.7110025  0.6286414    0.00000       Uiso       1.00
       O20          O  0.2798149  0.6691077  0.5889806    0.00000       Uiso       1.00
      H346          H  0.2569299  0.7226751  0.5816143    0.00000       Uiso       1.00
      H347          H  0.2192472  0.7704538  0.5903541    0.00000       Uiso       1.00
      H348          H  0.1622007  0.7427759  0.6535354    0.00000       Uiso       1.00
      C435          C  0.0528978  0.6950987  0.7328104    0.00000       Uiso       1.00
      C436          C  0.0803128  0.6890211  0.7156336    0.00000       Uiso       1.00
      C437          C  0.1020167  0.6619702  0.7074947    0.00000       Uiso       1.00
      C438          C  0.1293646  0.6562321  0.6913878    0.00000       Uiso       1.00
      C439          C  0.1356861  0.6771793  0.6844951    0.00000       Uiso       1.00
      C440          C  0.1135484  0.7042292  0.6931803    0.00000       Uiso       1.00
      C441          C  0.0859406  0.7108589  0.7068079    0.00000       Uiso       1.00
       O21          O  0.0440443  0.6760595  0.7438421    0.00000       Uiso       1.00
      H349          H  0.0976141  0.6453758  0.7135888    0.00000       Uiso       1.00
      H350          H  0.1453926  0.6352806  0.6846460    0.00000       Uiso       1.00
      H351          H  0.1177148  0.7200034  0.6907838    0.00000       Uiso       1.00
      C442          C  0.0316246  0.7216191  0.7412679    0.00000       Uiso       1.00
      C443          C  0.0363230  0.7438723  0.7317095    0.00000       Uiso       1.00
      C444          C  0.0146330  0.7709336  0.7398144    0.00000       Uiso       1.00
      C445          C  0.0196918  0.7929959  0.7289138    0.00000       Uiso       1.00
      C446          C  0.0463159  0.7886369  0.7083763    0.00000       Uiso       1.00
      C447          C  0.0678249  0.7612638  0.7002549    0.00000       Uiso       1.00
      C448          C  0.0636661  0.7386379  0.7130922    0.00000       Uiso       1.00
       O22          O  0.0061102  0.7233449  0.7588100    0.00000       Uiso       1.00
      H352          H  0.9938008  0.7748203  0.7547218    0.00000       Uiso       1.00
      H353          H  0.0025547  0.8133961  0.7365501    0.00000       Uiso       1.00
      H354          H  0.0876296  0.7575537  0.6826981    0.00000       Uiso       1.00
      C449          C  0.2466751  0.6566873  0.6195452    0.00000       Uiso       1.00
      C450          C  0.2197235  0.6613851  0.6369382    0.00000       Uiso       1.00
      C451          C  0.2143521  0.6396950  0.6504139    0.00000       Uiso       1.00
      C452          C  0.1872310  0.6447533  0.6666343    0.00000       Uiso       1.00
      C453          C  0.1649657  0.6713772  0.6683625    0.00000       Uiso       1.00
      C454          C  0.1708298  0.6928863  0.6543771    0.00000       Uiso       1.00
      C455          C  0.1976147  0.6887279  0.6404298    0.00000       Uiso       1.00
       O23          O  0.2704636  0.6311734  0.6132988    0.00000       Uiso       1.00
      H355          H  0.2312984  0.6188629  0.6483749    0.00000       Uiso       1.00
      H356          H  0.1839680  0.6276160  0.6775331    0.00000       Uiso       1.00
      H357          H  0.1547351  0.7126908  0.6529151    0.00000       Uiso       1.00
      C456          C  0.0965582  0.8717352  0.6479425    0.00000       Uiso       1.00
      C457          C  0.1188119  0.8447839  0.6430815    0.00000       Uiso       1.00
      C458          C  0.1458739  0.8394122  0.6294962    0.00000       Uiso       1.00
      C459          C  0.1679362  0.8122914  0.6236537    0.00000       Uiso       1.00
      C460          C  0.1635771  0.7900267  0.6297396    0.00000       Uiso       1.00
      C461          C  0.1362036  0.7958909  0.6431270    0.00000       Uiso       1.00
      C462          C  0.1135775  0.8226753  0.6518064    0.00000       Uiso       1.00
       O24          O  0.0982834  0.8955239  0.6399714    0.00000       Uiso       1.00
      H358          H  0.1497614  0.8563571  0.6235719    0.00000       Uiso       1.00
      H359          H  0.1883370  0.8090277  0.6141529    0.00000       Uiso       1.00
      H360          H  0.1324934  0.7797966  0.6453742    0.00000       Uiso       1.00
       B10          B  0.0691951  0.9164476  0.6496315    0.00000       Uiso       1.00
       B11          B  0.2913876  0.6393377  0.5938707    0.00000       Uiso       1.00
       B12          B  0.0142740  0.6942569  0.7603053    0.00000       Uiso       1.00
      C463          C  0.9838919  0.3771251  0.8359400    0.00000       Uiso       1.00
      C464          C  0.9899354  0.3557689  0.8238214    0.00000       Uiso       1.00
      C465          C  0.9817203  0.3610408  0.8049821    0.00000       Uiso       1.00
      C466          C  0.9869220  0.3394145  0.7941326    0.00000       Uiso       1.00
      C467          C  0.9988538  0.3121454  0.8031893    0.00000       Uiso       1.00
      C468          C  0.0066768  0.3072490  0.8224224    0.00000       Uiso       1.00
      C469          C  0.0044333  0.3282686  0.8312386    0.00000       Uiso       1.00
       O25          O  0.9688932  0.4050780  0.8319461    0.00000       Uiso       1.00
      H361          H  0.0130236  0.2873012  0.8318638    0.00000       Uiso       1.00
      C470          C  0.1106311  0.1779787  0.8912531    0.00000       Uiso       1.00
      C471          C  0.0953329  0.2053891  0.8852156    0.00000       Uiso       1.00
      C472          C  0.0924273  0.2270797  0.8935105    0.00000       Uiso       1.00
      C473          C  0.0761450  0.2544184  0.8881831    0.00000       Uiso       1.00
      C474          C  0.0609286  0.2607797  0.8760539    0.00000       Uiso       1.00
      C475          C  0.0637599  0.2386508  0.8682789    0.00000       Uiso       1.00
      C476          C  0.0823924  0.2110185  0.8706549    0.00000       Uiso       1.00
       O26          O  0.1236093  0.1691583  0.9061922    0.00000       Uiso       1.00
      H362          H  0.1030465  0.2226724  0.9039173    0.00000       Uiso       1.00
      H363          H  0.0754690  0.2704032  0.8938498    0.00000       Uiso       1.00
      H364          H  0.0502285  0.2428647  0.8617938    0.00000       Uiso       1.00
      C477          C  0.0382657  0.1951430  0.7644818    0.00000       Uiso       1.00
      C478          C  0.0503708  0.1890650  0.7797805    0.00000       Uiso       1.00
      C479          C  0.0691385  0.1619777  0.7826971    0.00000       Uiso       1.00
      C480          C  0.0801957  0.1562285  0.7989855    0.00000       Uiso       1.00
      C481          C  0.0713581  0.1772110  0.8141910    0.00000       Uiso       1.00
      C482          C  0.0520886  0.2042927  0.8113285    0.00000       Uiso       1.00
      C483          C  0.0430974  0.2109165  0.7926869    0.00000       Uiso       1.00
       O27          O  0.0425433  0.1759752  0.7514694    0.00000       Uiso       1.00
      H365          H  0.0753193  0.1453838  0.7720733    0.00000       Uiso       1.00
      H366          H  0.0954831  0.1352453  0.7996636    0.00000       Uiso       1.00
      H367          H  0.0427574  0.2201288  0.8248277    0.00000       Uiso       1.00
      C484          C  0.0197193  0.2217480  0.7616651    0.00000       Uiso       1.00
      C485          C  0.0129895  0.2440141  0.7731084    0.00000       Uiso       1.00
      C486          C  0.9941779  0.2711388  0.7702765    0.00000       Uiso       1.00
      C487          C  0.9887342  0.2931032  0.7808598    0.00000       Uiso       1.00
      C488          C  0.0032786  0.2886857  0.7929542    0.00000       Uiso       1.00
      C489          C  0.0224117  0.2612920  0.7953018    0.00000       Uiso       1.00
      C490          C  0.0259165  0.2387085  0.7875850    0.00000       Uiso       1.00
       O28          O  0.0099252  0.2233741  0.7459648    0.00000       Uiso       1.00
      H368          H  0.0358500  0.2575639  0.8016558    0.00000       Uiso       1.00
      C491          C  0.1134327  0.1566545  0.8831754    0.00000       Uiso       1.00
      C492          C  0.1019823  0.1613611  0.8676699    0.00000       Uiso       1.00
      C493          C  0.1048841  0.1396523  0.8594100    0.00000       Uiso       1.00
      C494          C  0.0941507  0.1447265  0.8430234    0.00000       Uiso       1.00
      C495          C  0.0818631  0.1713893  0.8330005    0.00000       Uiso       1.00
      C496          C  0.0795782  0.1928993  0.8411520    0.00000       Uiso       1.00
      C497          C  0.0874441  0.1887317  0.8600909    0.00000       Uiso       1.00
       O29          O  0.1290472  0.1310998  0.8913425    0.00000       Uiso       1.00
      H369          H  0.1152928  0.1188034  0.8659522    0.00000       Uiso       1.00
      H370          H  0.0957819  0.1275679  0.8381730    0.00000       Uiso       1.00
      H371          H  0.0730913  0.2127250  0.8315049    0.00000       Uiso       1.00
      C498          C  0.9919620  0.3718095  0.8544974    0.00000       Uiso       1.00
      C499          C  0.0074630  0.3448644  0.8612418    0.00000       Uiso       1.00
      C500          C  0.0157163  0.3395199  0.8800520    0.00000       Uiso       1.00
      C501          C  0.0321051  0.3124073  0.8857225    0.00000       Uiso       1.00
      C502          C  0.0421248  0.2900902  0.8713583    0.00000       Uiso       1.00
      C503          C  0.0339605  0.2959511  0.8521435    0.00000       Uiso       1.00
      C504          C  0.0150244  0.3227568  0.8484400    0.00000       Uiso       1.00
       O30          O  0.9837518  0.3955448  0.8645692    0.00000       Uiso       1.00
      H372          H  0.0091564  0.3564940  0.8904721    0.00000       Uiso       1.00
      H373          H  0.0369473  0.3092142  0.9012460    0.00000       Uiso       1.00
      H374          H  0.0435766  0.2798404  0.8387963    0.00000       Uiso       1.00
       B13          B  0.9690108  0.4165032  0.8501338    0.00000       Uiso       1.00
       B14          B  0.1353052  0.1393333  0.9060298    0.00000       Uiso       1.00
       B15          B  0.0244739  0.1942541  0.7397087    0.00000       Uiso       1.00
      H375          H  0.9714477  0.3818945  0.7984545    0.00000       Uiso       1.00
      H376          H  0.9812081  0.3443960  0.7788615    0.00000       Uiso       1.00
      H377          H  0.9834815  0.2753717  0.7600639    0.00000       Uiso       1.00
      H378          H  0.9732631  0.3135019  0.7791669    0.00000       Uiso       1.00
      C505          C  0.4979649  0.8941444  0.8220330    0.00000       Uiso       1.00
      C506          C  0.5193018  0.8899846  0.7946184    0.00000       Uiso       1.00
      C507          C  0.5139541  0.9034708  0.7729151    0.00000       Uiso       1.00
      C508          C  0.5355633  0.8979685  0.7455674    0.00000       Uiso       1.00
      C509          C  0.5628322  0.8775930  0.7392457    0.00000       Uiso       1.00
      C510          C  0.5677452  0.8639956  0.7613829    0.00000       Uiso       1.00
      C511          C  0.5467677  0.8713452  0.7889905    0.00000       Uiso       1.00
       O31          O  0.4700719  0.9110046  0.8308864    0.00000       Uiso       1.00
      H379          H  0.4929568  0.9183732  0.7773180    0.00000       Uiso       1.00
      H380          H  0.5306390  0.9096343  0.7295399    0.00000       Uiso       1.00
      H381          H  0.5876861  0.8464519  0.7572164    0.00000       Uiso       1.00
      C512          C  0.6969913  0.7671760  0.8048899    0.00000       Uiso       1.00
      C513          C  0.6695762  0.7843526  0.8109679    0.00000       Uiso       1.00
      C514          C  0.6478731  0.7924903  0.8380189    0.00000       Uiso       1.00
      C515          C  0.6205248  0.8085970  0.8437579    0.00000       Uiso       1.00
      C516          C  0.6142027  0.8154908  0.8228109    0.00000       Uiso       1.00
      C517          C  0.6363400  0.8068069  0.7957606    0.00000       Uiso       1.00
      C518          C  0.6639479  0.7931792  0.7891303    0.00000       Uiso       1.00
       O32          O  0.7058449  0.7561436  0.8239289    0.00000       Uiso       1.00
      H382          H  0.6522771  0.7863948  0.8546125    0.00000       Uiso       1.00
      H383          H  0.6044976  0.8153378  0.8647097    0.00000       Uiso       1.00
      H384          H  0.6321732  0.8092041  0.7799864    0.00000       Uiso       1.00
      C519          C  0.6798470  0.8392333  0.6230091    0.00000       Uiso       1.00
      C520          C  0.6859255  0.8289948  0.6443457    0.00000       Uiso       1.00
      C521          C  0.7129768  0.8154298  0.6389980    0.00000       Uiso       1.00
      C522          C  0.7187158  0.8041883  0.6606070    0.00000       Uiso       1.00
      C523          C  0.6977688  0.8047596  0.6878756    0.00000       Uiso       1.00
      C524          C  0.6707184  0.8182122  0.6927885    0.00000       Uiso       1.00
      C525          C  0.6640878  0.8321926  0.6718113    0.00000       Uiso       1.00
       O33          O  0.6988859  0.8370553  0.5951165    0.00000       Uiso       1.00
      H385          H  0.7295712  0.8137383  0.6180010    0.00000       Uiso       1.00
      H386          H  0.7396678  0.7949022  0.6556830    0.00000       Uiso       1.00
      H387          H  0.6549442  0.8164422  0.7127290    0.00000       Uiso       1.00
      C526          C  0.6533260  0.8520492  0.6282569    0.00000       Uiso       1.00
      C527          C  0.6310731  0.8569090  0.6552085    0.00000       Uiso       1.00
      C528          C  0.6040110  0.8704943  0.6605807    0.00000       Uiso       1.00
      C529          C  0.5819490  0.8763358  0.6877018    0.00000       Uiso       1.00
      C530          C  0.5863090  0.8702488  0.7099662    0.00000       Uiso       1.00
      C531          C  0.6136826  0.8568612  0.7041014    0.00000       Uiso       1.00
      C532          C  0.6363083  0.8481829  0.6773165    0.00000       Uiso       1.00
       O34          O  0.6515993  0.8600218  0.6044690    0.00000       Uiso       1.00
      H388          H  0.6001237  0.8764194  0.6436355    0.00000       Uiso       1.00
      H389          H  0.5615484  0.8858367  0.6909654    0.00000       Uiso       1.00
      H390          H  0.6173935  0.8546129  0.7201955    0.00000       Uiso       1.00
      C533          C  0.7182642  0.7587194  0.7783694    0.00000       Uiso       1.00
      C534          C  0.7135655  0.7682783  0.7561164    0.00000       Uiso       1.00
      C535          C  0.7352554  0.7601742  0.7290548    0.00000       Uiso       1.00
      C536          C  0.7301962  0.7710752  0.7069927    0.00000       Uiso       1.00
      C537          C  0.7035719  0.7916123  0.7113522    0.00000       Uiso       1.00
      C538          C  0.6820630  0.7997333  0.7387255    0.00000       Uiso       1.00
      C539          C  0.6862223  0.7868955  0.7613512    0.00000       Uiso       1.00
       O35          O  0.7437788  0.7411771  0.7766431    0.00000       Uiso       1.00
      H391          H  0.7560877  0.7452670  0.7251683    0.00000       Uiso       1.00
      H392          H  0.7473332  0.7634395  0.6865924    0.00000       Uiso       1.00
      H393          H  0.6622582  0.8172900  0.7424360    0.00000       Uiso       1.00
      C540          C  0.5032125  0.8804394  0.8433060    0.00000       Uiso       1.00
      C541          C  0.5301644  0.8630466  0.8386076    0.00000       Uiso       1.00
      C542          C  0.5355368  0.8495697  0.8602970    0.00000       Uiso       1.00
      C543          C  0.5626583  0.8333497  0.8552378    0.00000       Uiso       1.00
      C544          C  0.5849229  0.8316231  0.8286139    0.00000       Uiso       1.00
      C545          C  0.5790578  0.8456095  0.8071056    0.00000       Uiso       1.00
      C546          C  0.5522727  0.8595563  0.8112646    0.00000       Uiso       1.00
       O36          O  0.4794240  0.8866850  0.8688201    0.00000       Uiso       1.00
      H394          H  0.5185922  0.8516064  0.8811294    0.00000       Uiso       1.00
      H395          H  0.5659225  0.8224496  0.8723743    0.00000       Uiso       1.00
      H396          H  0.5951521  0.8470724  0.7873012    0.00000       Uiso       1.00
       B16          B  0.4584995  0.9061134  0.8606564    0.00000       Uiso       1.00
       B17          B  0.7356152  0.7396809  0.8057311    0.00000       Uiso       1.00
       B18          B  0.6806875  0.8503627  0.5835445    0.00000       Uiso       1.00
      C547          C  0.9978572  0.8050920  0.2360102    0.00000       Uiso       1.00
      C548          C  0.0192136  0.8111669  0.2206976    0.00000       Uiso       1.00
      C549          C  0.0139419  0.8382208  0.2177551    0.00000       Uiso       1.00
      C550          C  0.0355685  0.8438686  0.2013304    0.00000       Uiso       1.00
      C551          C  0.0628378  0.8228801  0.1859924    0.00000       Uiso       1.00
      C552          C  0.0677340  0.7958242  0.1889185    0.00000       Uiso       1.00
      C553          C  0.0467141  0.7892519  0.2076945    0.00000       Uiso       1.00
       O37          O  0.9699041  0.8240844  0.2489652    0.00000       Uiso       1.00
      H397          H  0.0876818  0.7800363  0.1753170    0.00000       Uiso       1.00
      C554          C  0.1970053  0.6230408  0.1635968    0.00000       Uiso       1.00
      C555          C  0.1695946  0.6443763  0.1757099    0.00000       Uiso       1.00
      C556          C  0.1479037  0.6389872  0.1944949    0.00000       Uiso       1.00
      C557          C  0.1205648  0.6605967  0.2055520    0.00000       Uiso       1.00
      C558          C  0.1142035  0.6879420  0.1966977    0.00000       Uiso       1.00
      C559          C  0.1363325  0.6928856  0.1774002    0.00000       Uiso       1.00
      C560          C  0.1639652  0.6718773  0.1683995    0.00000       Uiso       1.00
       O38          O  0.2058257  0.5951236  0.1677539    0.00000       Uiso       1.00
      H398          H  0.1523111  0.6179613  0.2007061    0.00000       Uiso       1.00
      H399          H  0.1045799  0.6556060  0.2208608    0.00000       Uiso       1.00
      H400          H  0.1321185  0.7129021  0.1680833    0.00000       Uiso       1.00
      C561          C  0.1798418  0.8221750  0.1084012    0.00000       Uiso       1.00
      C562          C  0.1859198  0.7947714  0.1144275    0.00000       Uiso       1.00
      C563          C  0.2130074  0.7730871  0.1061071    0.00000       Uiso       1.00
      C564          C  0.2187565  0.7457421  0.1114143    0.00000       Uiso       1.00
      C565          C  0.1977735  0.7393744  0.1235593    0.00000       Uiso       1.00
      C566          C  0.1706915  0.7615063  0.1313724    0.00000       Uiso       1.00
      C567          C  0.1640679  0.7891386  0.1290056    0.00000       Uiso       1.00
       O39          O  0.1990099  0.8309095  0.0935110    0.00000       Uiso       1.00
      H401          H  0.2296016  0.7775301  0.0956939    0.00000       Uiso       1.00
      H402          H  0.2397400  0.7297765  0.1057180    0.00000       Uiso       1.00
      H403          H  0.1548550  0.7573384  0.1378774    0.00000       Uiso       1.00
      C568          C  0.1532365  0.8435380  0.1164605    0.00000       Uiso       1.00
      C569          C  0.1309700  0.8388248  0.1319969    0.00000       Uiso       1.00
      C570          C  0.1038450  0.8604683  0.1403107    0.00000       Uiso       1.00
      C571          C  0.0818802  0.8553287  0.1568316    0.00000       Uiso       1.00
      C572          C  0.0862977  0.8286901  0.1669577    0.00000       Uiso       1.00
      C573          C  0.1136918  0.8072096  0.1586963    0.00000       Uiso       1.00
      C574          C  0.1362757  0.8114213  0.1396176    0.00000       Uiso       1.00
       O40          O  0.1516104  0.8690321  0.1082933    0.00000       Uiso       1.00
      H404          H  0.1174201  0.7874174  0.1684058    0.00000       Uiso       1.00
      C575          C  0.2183297  0.6283166  0.1450744    0.00000       Uiso       1.00
      C576          C  0.2136231  0.6552722  0.1383314    0.00000       Uiso       1.00
      C577          C  0.2353322  0.6606301  0.1195244    0.00000       Uiso       1.00
      C578          C  0.2302581  0.6877499  0.1138658    0.00000       Uiso       1.00
      C579          C  0.2035951  0.7100602  0.1282418    0.00000       Uiso       1.00
      C580          C  0.1820849  0.7041938  0.1474668    0.00000       Uiso       1.00
      C581          C  0.1862523  0.6773893  0.1511645    0.00000       Uiso       1.00
       O41          O  0.2438846  0.6045352  0.1351334    0.00000       Uiso       1.00
      H405          H  0.2561812  0.6436794  0.1090836    0.00000       Uiso       1.00
      H406          H  0.2474167  0.6909690  0.0983385    0.00000       Uiso       1.00
      H407          H  0.1622592  0.7203276  0.1608061    0.00000       Uiso       1.00
      C582          C  0.0031725  0.7784647  0.2387641    0.00000       Uiso       1.00
      C583          C  0.0301179  0.7562194  0.2273194    0.00000       Uiso       1.00
      C584          C  0.0354621  0.7291563  0.2302274    0.00000       Uiso       1.00
      C585          C  0.0625751  0.7070971  0.2195028    0.00000       Uiso       1.00
      C586          C  0.0848926  0.7114413  0.2072054    0.00000       Uiso       1.00
      C587          C  0.0790319  0.7388201  0.2049027    0.00000       Uiso       1.00
      C588          C  0.0522259  0.7614596  0.2127730    0.00000       Uiso       1.00
       O42          O  0.9794370  0.7766033  0.2542893    0.00000       Uiso       1.00
      H408          H  0.0184877  0.7252963  0.2406417    0.00000       Uiso       1.00
      H409          H  0.0657679  0.6867318  0.2211515    0.00000       Uiso       1.00
      H410          H  0.0951431  0.7425510  0.1984078    0.00000       Uiso       1.00
       B19          B  0.9584785  0.8057795  0.2605076    0.00000       Uiso       1.00
       B20          B  0.2356509  0.5835902  0.1496244    0.00000       Uiso       1.00
       B21          B  0.1807309  0.8607395  0.0937215    0.00000       Uiso       1.00
      H411          H  0.9930883  0.8550209  0.2283367    0.00000       Uiso       1.00
      H412          H  0.0305873  0.8648532  0.2005986    0.00000       Uiso       1.00
      H413          H  0.0996120  0.8813770  0.1338479    0.00000       Uiso       1.00
      H414          H  0.0614812  0.8724928  0.1617597    0.00000       Uiso       1.00
      C589          C  0.2141651  0.1058808  0.1778988    0.00000       Uiso       1.00
      C590          C  0.2039275  0.1100406  0.2053135    0.00000       Uiso       1.00
      C591          C  0.1903627  0.0965544  0.2270167    0.00000       Uiso       1.00
      C592          C  0.1791219  0.1020566  0.2543645    0.00000       Uiso       1.00
      C593          C  0.1796936  0.1224321  0.2606862    0.00000       Uiso       1.00
      C594          C  0.1931464  0.1360295  0.2385490    0.00000       Uiso       1.00
      C595          C  0.2071261  0.1286799  0.2109413    0.00000       Uiso       1.00
       O43          O  0.2119858  0.0890206  0.1690454    0.00000       Uiso       1.00
      H415          H  0.1886709  0.0816519  0.2226138    0.00000       Uiso       1.00
      H416          H  0.1698359  0.0903908  0.2703919    0.00000       Uiso       1.00
      H417          H  0.1913770  0.1535732  0.2427154    0.00000       Uiso       1.00
      C596          C  0.2690797  0.2328491  0.1950420    0.00000       Uiso       1.00
      C597          C  0.2649193  0.2156725  0.1889639    0.00000       Uiso       1.00
      C598          C  0.2784049  0.2075348  0.1619129    0.00000       Uiso       1.00
      C599          C  0.2729024  0.1914281  0.1561740    0.00000       Uiso       1.00
      C600          C  0.2525271  0.1845343  0.1771209    0.00000       Uiso       1.00
      C601          C  0.2389300  0.1932183  0.2041712    0.00000       Uiso       1.00
      C602          C  0.2462800  0.2068460  0.2108015    0.00000       Uiso       1.00
       O44          O  0.2859401  0.2438815  0.1760029    0.00000       Uiso       1.00
      H418          H  0.2933071  0.2136303  0.1453193    0.00000       Uiso       1.00
      H419          H  0.2845678  0.1846873  0.1352221    0.00000       Uiso       1.00
      H420          H  0.2213863  0.1908211  0.2199454    0.00000       Uiso       1.00
      C603          C  0.1421117  0.1607918  0.3769227    0.00000       Uiso       1.00
      C604          C  0.1592883  0.1710304  0.3555861    0.00000       Uiso       1.00
      C605          C  0.1674269  0.1845954  0.3609338    0.00000       Uiso       1.00
      C606          C  0.1835335  0.1958368  0.3393248    0.00000       Uiso       1.00
      C607          C  0.1904263  0.1952656  0.3120562    0.00000       Uiso       1.00
      C608          C  0.1817415  0.1818130  0.3071433    0.00000       Uiso       1.00
      C609          C  0.1681141  0.1678326  0.3281206    0.00000       Uiso       1.00
       O45          O  0.1310799  0.1629698  0.4048153    0.00000       Uiso       1.00
      H421          H  0.1613328  0.1862868  0.3819308    0.00000       Uiso       1.00
      H422          H  0.1902753  0.2051229  0.3442489    0.00000       Uiso       1.00
      H423          H  0.1841379  0.1835829  0.2872028    0.00000       Uiso       1.00
      C610          C  0.1336545  0.1479759  0.3716749    0.00000       Uiso       1.00
      C611          C  0.1432129  0.1431161  0.3447233    0.00000       Uiso       1.00
      C612          C  0.1351084  0.1295309  0.3393512    0.00000       Uiso       1.00
      C613          C  0.1460091  0.1236893  0.3122301    0.00000       Uiso       1.00
      C614          C  0.1665465  0.1297763  0.2899656    0.00000       Uiso       1.00
      C615          C  0.1746677  0.1431639  0.2958304    0.00000       Uiso       1.00
      C616          C  0.1618302  0.1518422  0.3226153    0.00000       Uiso       1.00
       O46          O  0.1161125  0.1400033  0.3954628    0.00000       Uiso       1.00
      H424          H  0.1202010  0.1236058  0.3562964    0.00000       Uiso       1.00
      H425          H  0.1383731  0.1141884  0.3089664    0.00000       Uiso       1.00
      H426          H  0.1922245  0.1454122  0.2797363    0.00000       Uiso       1.00
      C617          C  0.2553754  0.2413058  0.2215624    0.00000       Uiso       1.00
      C618          C  0.2379826  0.2317469  0.2438155    0.00000       Uiso       1.00
      C619          C  0.2245067  0.2398509  0.2708770    0.00000       Uiso       1.00
      C620          C  0.2082865  0.2289500  0.2929391    0.00000       Uiso       1.00
      C621          C  0.2065587  0.2084128  0.2885796    0.00000       Uiso       1.00
      C622          C  0.2205443  0.2002918  0.2612063    0.00000       Uiso       1.00
      C623          C  0.2344914  0.2131296  0.2385806    0.00000       Uiso       1.00
       O47          O  0.2616214  0.2588480  0.2232887    0.00000       Uiso       1.00
      H427          H  0.2265454  0.2547582  0.2747635    0.00000       Uiso       1.00
      H428          H  0.1973875  0.2365856  0.3133394    0.00000       Uiso       1.00
      H429          H  0.2220067  0.1827352  0.2574959    0.00000       Uiso       1.00
      C624          C  0.2269808  0.1195858  0.1566258    0.00000       Uiso       1.00
      C625          C  0.2318414  0.1369786  0.1613242    0.00000       Uiso       1.00
      C626          C  0.2454264  0.1504555  0.1396347    0.00000       Uiso       1.00
      C627          C  0.2512686  0.1666755  0.1446940    0.00000       Uiso       1.00
      C628          C  0.2451826  0.1684020  0.1713179    0.00000       Uiso       1.00
      C629          C  0.2317955  0.1544157  0.1928263    0.00000       Uiso       1.00
      C630          C  0.2231164  0.1404689  0.1886672    0.00000       Uiso       1.00
       O48          O  0.2349519  0.1133402  0.1311117    0.00000       Uiso       1.00
      H430          H  0.2513508  0.1484188  0.1188024    0.00000       Uiso       1.00
      H431          H  0.2607692  0.1775755  0.1275576    0.00000       Uiso       1.00
      H432          H  0.2295483  0.1529527  0.2126306    0.00000       Uiso       1.00
       B22          B  0.2252922  0.0939117  0.1392754    0.00000       Uiso       1.00
       B23          B  0.2810496  0.2603442  0.1942008    0.00000       Uiso       1.00
       B24          B  0.1146169  0.1496625  0.4163873    0.00000       Uiso       1.00
