data_100
_audit_creation_date              0000-00-00
_audit_creation_method            'LanYouShi'
_symmetry_space_group_name_H-M    'P1'
_cell_length_a                    68.1956024
_cell_length_b                    68.1961975
_cell_length_c                    68.1961975
_cell_angle_alpha                 119.9993973
_cell_angle_beta                  60.0003014
_cell_angle_gamma                 119.9997025
loop_
_atom_site_label
_atom_site_type_symbol
_atom_site_fract_x
_atom_site_fract_y
_atom_site_fract_z
_atom_site_U_iso_or_equiv
_atom_site_adp_type
_atom_site_occupancy
        C1          C  0.5952716  0.7330100  0.5952746    0.00000       Uiso       1.00
        C2          C  0.6075841  0.7205390  0.5722552    0.00000       Uiso       1.00
        C3          C  0.5970075  0.6955331  0.5616814    0.00000       Uiso       1.00
        C4          C  0.5722519  0.7205386  0.6075867    0.00000       Uiso       1.00
        C5          C  0.5615767  0.6956134  0.5970382    0.00000       Uiso       1.00
        C6          C  0.5737410  0.6824564  0.5738636    0.00000       Uiso       1.00
        H1          H  0.5619290  0.7304401  0.6263523    0.00000       Uiso       1.00
        H2          H  0.6263499  0.7304407  0.5619325    0.00000       Uiso       1.00
        C7          C  0.5424653  0.4047297  0.2669941    0.00000       Uiso       1.00
        C8          C  0.5407012  0.4277491  0.2794652    0.00000       Uiso       1.00
        C9          C  0.5369996  0.4384246  0.3043902    0.00000       Uiso       1.00
       C10          C  0.5407015  0.3924175  0.2794655    0.00000       Uiso       1.00
       C11          C  0.5368458  0.4029942  0.3044714    0.00000       Uiso       1.00
       C12          C  0.5348526  0.4262601  0.3175467    0.00000       Uiso       1.00
        H3          H  0.5421605  0.3736520  0.2695640    0.00000       Uiso       1.00
        H4          H  0.5421599  0.4380718  0.2695634    0.00000       Uiso       1.00
       C13          C  0.2669890  0.4047273  0.5424658    0.00000       Uiso       1.00
       C14          C  0.2794605  0.3924152  0.5407021    0.00000       Uiso       1.00
       C15          C  0.3043863  0.4029621  0.5369978    0.00000       Uiso       1.00
       C16          C  0.2794603  0.4277468  0.5407018    0.00000       Uiso       1.00
       C17          C  0.3044668  0.4383191  0.5368425    0.00000       Uiso       1.00
       C18          C  0.3175437  0.4261348  0.5348476    0.00000       Uiso       1.00
        H5          H  0.2695584  0.4380694  0.5421604    0.00000       Uiso       1.00
        H6          H  0.2695590  0.3736496  0.5421609    0.00000       Uiso       1.00
       C19          C  0.5952742  0.4575385  0.5952770    0.00000       Uiso       1.00
       C20          C  0.5722543  0.4593022  0.6075890    0.00000       Uiso       1.00
       C21          C  0.5616801  0.4631571  0.5970121    0.00000       Uiso       1.00
       C22          C  0.6075865  0.4593025  0.5722575    0.00000       Uiso       1.00
       C23          C  0.5970374  0.4630027  0.5615815    0.00000       Uiso       1.00
       C24          C  0.5738624  0.4651487  0.5737454    0.00000       Uiso       1.00
       C25          C  0.5000001  0.5000007  0.4999999    0.00000       Uiso       1.00
        H7          H  0.6263523  0.4578439  0.5619349    0.00000       Uiso       1.00
        H8          H  0.5619314  0.4578433  0.6263547    0.00000       Uiso       1.00
        N1          N  0.6113882  0.6827511  0.5371129    0.00000       Uiso       1.00
        O1          O  0.6028718  0.6614072  0.5275924    0.00000       Uiso       1.00
        O2          O  0.6314265  0.6938502  0.5269452    0.00000       Uiso       1.00
        N2          N  0.5371125  0.4657541  0.6113940    0.00000       Uiso       1.00
        O3          O  0.5275913  0.4690607  0.6028777    0.00000       Uiso       1.00
        O4          O  0.5269463  0.4645285  0.6314334    0.00000       Uiso       1.00
        N3          N  0.5342506  0.3886111  0.3172518    0.00000       Uiso       1.00
        O5          O  0.5309434  0.3971257  0.3385957    0.00000       Uiso       1.00
        O6          O  0.5354773  0.3685724  0.3061516    0.00000       Uiso       1.00
        N4          N  0.3172434  0.4628852  0.5342431    0.00000       Uiso       1.00
        O7          O  0.3385880  0.4724093  0.5309326    0.00000       Uiso       1.00
        O8          O  0.3061395  0.4730469  0.5354698    0.00000       Uiso       1.00
        N5          N  0.5364522  0.6832331  0.6109874    0.00000       Uiso       1.00
        O9          O  0.5267631  0.6619239  0.6025137    0.00000       Uiso       1.00
       O10          O  0.5260081  0.6946192  0.6306376    0.00000       Uiso       1.00
        N6          N  0.6109872  0.4642085  0.5364575    0.00000       Uiso       1.00
       O11          O  0.6025134  0.4673539  0.5267676    0.00000       Uiso       1.00
       O12          O  0.6306384  0.4620301  0.5260146    0.00000       Uiso       1.00
        N7          N  0.5357926  0.4635480  0.3167699    0.00000       Uiso       1.00
       O13          O  0.5326460  0.4732376  0.3380791    0.00000       Uiso       1.00
       O14          O  0.5379724  0.4739913  0.3053829    0.00000       Uiso       1.00
        N8          N  0.3167689  0.3890114  0.5357866    0.00000       Uiso       1.00
       O15          O  0.3380789  0.3974847  0.5326375    0.00000       Uiso       1.00
       O16          O  0.3053836  0.3693605  0.5379655    0.00000       Uiso       1.00
       C26          C  0.5623133  0.6554495  0.5626904    0.00000       Uiso       1.00
       C27          C  0.5671363  0.6442612  0.5375288    0.00000       Uiso       1.00
       C28          C  0.5566540  0.6191619  0.5271192    0.00000       Uiso       1.00
       C29          C  0.5464264  0.6405283  0.5771267    0.00000       Uiso       1.00
       C30          C  0.5356684  0.6154649  0.5669590    0.00000       Uiso       1.00
       C31          C  0.5408188  0.6047131  0.5418727    0.00000       Uiso       1.00
        H9          H  0.5426641  0.6482885  0.5963500    0.00000       Uiso       1.00
       H10          H  0.5788406  0.6551065  0.5259515    0.00000       Uiso       1.00
       C32          C  0.5304458  0.4376880  0.3445520    0.00000       Uiso       1.00
       C33          C  0.5169660  0.4535663  0.3594729    0.00000       Uiso       1.00
       C34          C  0.5128285  0.4643255  0.3845360    0.00000       Uiso       1.00
       C35          C  0.5396062  0.4328759  0.3557394    0.00000       Uiso       1.00
       C36          C  0.5353990  0.4433593  0.3808371    0.00000       Uiso       1.00
       C37          C  0.5220228  0.4591847  0.3952861    0.00000       Uiso       1.00
       H11          H  0.5503336  0.4211812  0.3448986    0.00000       Uiso       1.00
       H12          H  0.5092574  0.4573212  0.3517125    0.00000       Uiso       1.00
       C38          C  0.3445506  0.4373036  0.5304378    0.00000       Uiso       1.00
       C39          C  0.3594697  0.4228640  0.5169669    0.00000       Uiso       1.00
       C40          C  0.3845358  0.4330306  0.5128289    0.00000       Uiso       1.00
       C41          C  0.3557394  0.4624640  0.5395885    0.00000       Uiso       1.00
       C42          C  0.3808373  0.4728710  0.5353802    0.00000       Uiso       1.00
       C43          C  0.3952876  0.4581194  0.5220144    0.00000       Uiso       1.00
       H13          H  0.3449010  0.4740458  0.5503082    0.00000       Uiso       1.00
       H14          H  0.3517011  0.4036376  0.5092672    0.00000       Uiso       1.00
       C44          C  0.5626894  0.4695546  0.5623175    0.00000       Uiso       1.00
       C45          C  0.5375288  0.4603964  0.5671324    0.00000       Uiso       1.00
       C46          C  0.5271190  0.4646058  0.5566519    0.00000       Uiso       1.00
       C47          C  0.5771253  0.4830320  0.5464376    0.00000       Uiso       1.00
       C48          C  0.5669575  0.4871689  0.5356787    0.00000       Uiso       1.00
       C49          C  0.5418722  0.4779795  0.5408235    0.00000       Uiso       1.00
       H15          H  0.5963481  0.4907370  0.5426809    0.00000       Uiso       1.00
       H16          H  0.5259554  0.4496696  0.5788283    0.00000       Uiso       1.00
       C50          C  0.5021223  0.4557157  0.5617566    0.00000       Uiso       1.00
       C51          C  0.4918978  0.4602386  0.5515520    0.00000       Uiso       1.00
       C52          C  0.5442963  0.4382603  0.3918381    0.00000       Uiso       1.00
       C53          C  0.5397766  0.4484672  0.4167888    0.00000       Uiso       1.00
       H17          H  0.5546519  0.4261948  0.3811295    0.00000       Uiso       1.00
       H18          H  0.5467286  0.4439743  0.4246866    0.00000       Uiso       1.00
       H19          H  0.4904142  0.4453619  0.5738230    0.00000       Uiso       1.00
       H20          H  0.4725558  0.4532922  0.5560457    0.00000       Uiso       1.00
       C54          C  0.5302566  0.5794404  0.5315136    0.00000       Uiso       1.00
       C55          C  0.5357530  0.5685937  0.5064077    0.00000       Uiso       1.00
       C56          C  0.5257599  0.5433781  0.4961559    0.00000       Uiso       1.00
       C57          C  0.5145144  0.5650129  0.5462579    0.00000       Uiso       1.00
       C58          C  0.5043964  0.5399135  0.5358437    0.00000       Uiso       1.00
       C59          C  0.5096032  0.5283804  0.5105996    0.00000       Uiso       1.00
       H21          H  0.4888988  0.5072871  0.4709586    0.00000       Uiso       1.00
       H22          H  0.4643481  0.5231841  0.5274888    0.00000       Uiso       1.00
       C60          C  0.5176733  0.4697472  0.4205579    0.00000       Uiso       1.00
       C61          C  0.5042349  0.4854822  0.4349870    0.00000       Uiso       1.00
       C62          C  0.4996683  0.4956019  0.4600873    0.00000       Uiso       1.00
       C63          C  0.5264471  0.4642607  0.4314042    0.00000       Uiso       1.00
       C64          C  0.5214745  0.4742529  0.4566207    0.00000       Uiso       1.00
       C65          C  0.5081781  0.4903993  0.4716198    0.00000       Uiso       1.00
       H23          H  0.5313374  0.5356500  0.4768164    0.00000       Uiso       1.00
       H24          H  0.5474309  0.5110759  0.4926923    0.00000       Uiso       1.00
       C66          C  0.4205586  0.4684826  0.5176673    0.00000       Uiso       1.00
       C67          C  0.4349870  0.4537382  0.5042400    0.00000       Uiso       1.00
       C68          C  0.4600873  0.4641545  0.4996744    0.00000       Uiso       1.00
       C69          C  0.4314044  0.4935908  0.5264308    0.00000       Uiso       1.00
       C70          C  0.4566212  0.5038445  0.5214586    0.00000       Uiso       1.00
       C71          C  0.4716196  0.4894005  0.5081759    0.00000       Uiso       1.00
       H25          H  0.4768130  0.4724952  0.5313280    0.00000       Uiso       1.00
       H26          H  0.4927038  0.5290437  0.5474280    0.00000       Uiso       1.00
       C72          C  0.5315129  0.4823308  0.5302612    0.00000       Uiso       1.00
       C73          C  0.5064051  0.4735635  0.5357540    0.00000       Uiso       1.00
       C74          C  0.4961535  0.4785367  0.5257607    0.00000       Uiso       1.00
       C75          C  0.5462584  0.4957613  0.5145185    0.00000       Uiso       1.00
       C76          C  0.5358449  0.5003262  0.5043963    0.00000       Uiso       1.00
       C77          C  0.5105993  0.4918238  0.5096048    0.00000       Uiso       1.00
       H27          H  0.4709612  0.4525737  0.4889219    0.00000       Uiso       1.00
       H28          H  0.5275177  0.4686831  0.4643484    0.00000       Uiso       1.00
       C78          C  0.4167886  0.5080977  0.5397493    0.00000       Uiso       1.00
       C79          C  0.3918371  0.4978708  0.5442690    0.00000       Uiso       1.00
       C80          C  0.4240455  0.4287484  0.4952620    0.00000       Uiso       1.00
       C81          C  0.3991566  0.4185345  0.4994729    0.00000       Uiso       1.00
       C82          C  0.5515577  0.5832080  0.4918987    0.00000       Uiso       1.00
       C83          C  0.5617653  0.6081600  0.5021217    0.00000       Uiso       1.00
       C84          C  0.5094426  0.5759556  0.5712487    0.00000       Uiso       1.00
       C85          C  0.5199063  0.6008474  0.5814598    0.00000       Uiso       1.00
       C86          C  0.5712487  0.5047407  0.5094508    0.00000       Uiso       1.00
       C87          C  0.5814578  0.5005277  0.5199189    0.00000       Uiso       1.00
       C88          C  0.4952482  0.4905438  0.4240450    0.00000       Uiso       1.00
       C89          C  0.4994633  0.4800790  0.3991545    0.00000       Uiso       1.00
       H29          H  0.4847819  0.5025195  0.4347796    0.00000       Uiso       1.00
       H30          H  0.4921851  0.4842766  0.3913228    0.00000       Uiso       1.00
       H31          H  0.3913258  0.3992261  0.4922000    0.00000       Uiso       1.00
       H32          H  0.4347790  0.4170410  0.4848044    0.00000       Uiso       1.00
       H33          H  0.4246880  0.5274420  0.5466921    0.00000       Uiso       1.00
       H34          H  0.3811275  0.5095820  0.5546157    0.00000       Uiso       1.00
       H35          H  0.5157028  0.6086839  0.6007677    0.00000       Uiso       1.00
       H36          H  0.4974594  0.5652248  0.5829591    0.00000       Uiso       1.00
       H37          H  0.5560592  0.5753098  0.4725569    0.00000       Uiso       1.00
       H38          H  0.5738401  0.6188740  0.4904140    0.00000       Uiso       1.00
       H39          H  0.6007645  0.5077995  0.5157169    0.00000       Uiso       1.00
       H40          H  0.5829565  0.5151967  0.4974657    0.00000       Uiso       1.00
       C90          C  0.5952716  0.7330100  0.1196445    0.00000       Uiso       1.00
       C91          C  0.5722519  0.7205386  0.1178805    0.00000       Uiso       1.00
       C92          C  0.5616781  0.6955327  0.1140253    0.00000       Uiso       1.00
       C93          C  0.6075841  0.7205389  0.1178808    0.00000       Uiso       1.00
       C94          C  0.5970355  0.6956137  0.1141796    0.00000       Uiso       1.00
       C95          C  0.5738606  0.6824564  0.1120331    0.00000       Uiso       1.00
       H41          H  0.6263499  0.7304407  0.1193396    0.00000       Uiso       1.00
       H42          H  0.5619289  0.7304401  0.1193390    0.00000       Uiso       1.00
       C96          C  0.2669887  0.4047271  0.1724533    0.00000       Uiso       1.00
       C97          C  0.2794599  0.4277467  0.1847655    0.00000       Uiso       1.00
       C98          C  0.3043852  0.4384224  0.1742176    0.00000       Uiso       1.00
       C99          C  0.2794602  0.3924150  0.1494339    0.00000       Uiso       1.00
      C100          C  0.3044664  0.4029920  0.1388604    0.00000       Uiso       1.00
      C101          C  0.3175418  0.4262581  0.1510439    0.00000       Uiso       1.00
       H43          H  0.2695586  0.3736494  0.1391113    0.00000       Uiso       1.00
       H44          H  0.2695580  0.4380692  0.2035310    0.00000       Uiso       1.00
      C102          C  0.5424653  0.4047297  0.1724556    0.00000       Uiso       1.00
      C103          C  0.5407015  0.3924175  0.1494361    0.00000       Uiso       1.00
      C104          C  0.5369969  0.4029641  0.1387616    0.00000       Uiso       1.00
      C105          C  0.5407012  0.4277491  0.1847677    0.00000       Uiso       1.00
      C106          C  0.5368416  0.4383211  0.1741927    0.00000       Uiso       1.00
      C107          C  0.5348465  0.4261367  0.1509268    0.00000       Uiso       1.00
       H45          H  0.5421599  0.4380718  0.2035333    0.00000       Uiso       1.00
       H46          H  0.5421604  0.3736520  0.1391135    0.00000       Uiso       1.00
      C108          C  0.5952742  0.4575384  0.8441733    0.00000       Uiso       1.00
      C109          C  0.6075866  0.4593024  0.8566446    0.00000       Uiso       1.00
      C110          C  0.5970096  0.4631573  0.8816504    0.00000       Uiso       1.00
      C111          C  0.5722543  0.4593021  0.8566443    0.00000       Uiso       1.00
      C112          C  0.5615784  0.4630023  0.8815694    0.00000       Uiso       1.00
      C113          C  0.5737426  0.4651487  0.8947262    0.00000       Uiso       1.00
      C114          C  0.4999969  0.5000007  0.0771839    0.00000       Uiso       1.00
       H47          H  0.5619315  0.4578433  0.8467426    0.00000       Uiso       1.00
       H48          H  0.6263524  0.4578439  0.8467432    0.00000       Uiso       1.00
        N9          N  0.5371093  0.6827504  0.1114313    0.00000       Uiso       1.00
       O17          O  0.5275887  0.6614065  0.1081245    0.00000       Uiso       1.00
       O18          O  0.5269412  0.6938491  0.1126596    0.00000       Uiso       1.00
       N10          N  0.6113918  0.4657547  0.8944330    0.00000       Uiso       1.00
       O19          O  0.6028756  0.4690613  0.9157768    0.00000       Uiso       1.00
       O20          O  0.6314315  0.4645293  0.8833343    0.00000       Uiso       1.00
       N11          N  0.3172469  0.3886091  0.1142926    0.00000       Uiso       1.00
       O21          O  0.3385909  0.3971238  0.1047705    0.00000       Uiso       1.00
       O22          O  0.3061466  0.3685702  0.1041275    0.00000       Uiso       1.00
       N12          N  0.5342421  0.4628871  0.1885812    0.00000       Uiso       1.00
       O23          O  0.5309314  0.4724110  0.1800712    0.00000       Uiso       1.00
       O24          O  0.5354689  0.4730489  0.2086199    0.00000       Uiso       1.00
       N13          N  0.6109850  0.6832337  0.1129747    0.00000       Uiso       1.00
       O25          O  0.6025114  0.6619245  0.1098285    0.00000       Uiso       1.00
       O26          O  0.6306356  0.6946201  0.1151545    0.00000       Uiso       1.00
       N14          N  0.5364540  0.4642077  0.8939491    0.00000       Uiso       1.00
       O27          O  0.5267641  0.4673532  0.9152581    0.00000       Uiso       1.00
       O28          O  0.5260108  0.4620290  0.8825626    0.00000       Uiso       1.00
       N15          N  0.3167650  0.4635460  0.1881680    0.00000       Uiso       1.00
       O29          O  0.3380744  0.4732358  0.1796950    0.00000       Uiso       1.00
       O30          O  0.3053779  0.4739891  0.2078182    0.00000       Uiso       1.00
       N16          N  0.5357857  0.3890133  0.1136397    0.00000       Uiso       1.00
       O31          O  0.5326363  0.3974864  0.1039522    0.00000       Uiso       1.00
       O32          O  0.5379646  0.3693626  0.1031957    0.00000       Uiso       1.00
      C115          C  0.5626873  0.6554495  0.1076274    0.00000       Uiso       1.00
      C116          C  0.5375255  0.6442609  0.1167776    0.00000       Uiso       1.00
      C117          C  0.5271159  0.6191616  0.1125705    0.00000       Uiso       1.00
      C118          C  0.5771239  0.6405286  0.0941571    0.00000       Uiso       1.00
      C119          C  0.5669562  0.6154651  0.0900195    0.00000       Uiso       1.00
      C120          C  0.5418698  0.6047131  0.0992037    0.00000       Uiso       1.00
       H49          H  0.5963475  0.6482890  0.0864563    0.00000       Uiso       1.00
       H50          H  0.5259480  0.6551059  0.1274958    0.00000       Uiso       1.00
      C121          C  0.3445474  0.4376862  0.1398733    0.00000       Uiso       1.00
      C122          C  0.3594685  0.4535649  0.1543103    0.00000       Uiso       1.00
      C123          C  0.3845319  0.4643242  0.1441439    0.00000       Uiso       1.00
      C124          C  0.3557348  0.4328742  0.1147138    0.00000       Uiso       1.00
      C125          C  0.3808327  0.4433579  0.1043067    0.00000       Uiso       1.00
      C126          C  0.3952820  0.4591835  0.1190590    0.00000       Uiso       1.00
       H51          H  0.3448938  0.4211793  0.1031327    0.00000       Uiso       1.00
       H52          H  0.3517081  0.4573197  0.1735340    0.00000       Uiso       1.00
      C127          C  0.5304365  0.4373052  0.1394984    0.00000       Uiso       1.00
      C128          C  0.5169653  0.4228654  0.1236109    0.00000       Uiso       1.00
      C129          C  0.5128271  0.4330318  0.1128494    0.00000       Uiso       1.00
      C130          C  0.5395871  0.4624656  0.1443190    0.00000       Uiso       1.00
      C131          C  0.5353786  0.4728723  0.1338364    0.00000       Uiso       1.00
      C132          C  0.5220125  0.4581204  0.1180006    0.00000       Uiso       1.00
       H53          H  0.5503070  0.4740476  0.1560194    0.00000       Uiso       1.00
       H54          H  0.5092656  0.4036390  0.1198530    0.00000       Uiso       1.00
      C133          C  0.5623147  0.4695545  0.9217327    0.00000       Uiso       1.00
      C134          C  0.5671299  0.4603966  0.9329203    0.00000       Uiso       1.00
      C135          C  0.5566493  0.4646060  0.9580197    0.00000       Uiso       1.00
      C136          C  0.5464345  0.4830316  0.9366540    0.00000       Uiso       1.00
      C137          C  0.5356756  0.4871686  0.9617174    0.00000       Uiso       1.00
      C138          C  0.5408207  0.4779795  0.9724684    0.00000       Uiso       1.00
       H55          H  0.5426776  0.4907364  0.9288928    0.00000       Uiso       1.00
       H56          H  0.5788260  0.4496700  0.9220712    0.00000       Uiso       1.00
      C139          C  0.5617543  0.4557162  0.9690215    0.00000       Uiso       1.00
      C140          C  0.5515497  0.4602390  0.9939733    0.00000       Uiso       1.00
      C141          C  0.3918338  0.4382589  0.0793097    0.00000       Uiso       1.00
      C142          C  0.4167847  0.4484661  0.0690855    0.00000       Uiso       1.00
       H57          H  0.3811250  0.4261932  0.0675973    0.00000       Uiso       1.00
       H58          H  0.4246825  0.4439732  0.0497431    0.00000       Uiso       1.00
       H59          H  0.5738209  0.4453625  0.9583097    0.00000       Uiso       1.00
       H60          H  0.5560435  0.4532929  0.0018749    0.00000       Uiso       1.00
      C143          C  0.5315106  0.5794404  0.0948525    0.00000       Uiso       1.00
      C144          C  0.5064045  0.5685934  0.1036153    0.00000       Uiso       1.00
      C145          C  0.4961526  0.5433778  0.0986450    0.00000       Uiso       1.00
      C146          C  0.5462552  0.5650132  0.0814232    0.00000       Uiso       1.00
      C147          C  0.5358410  0.5399138  0.0768562    0.00000       Uiso       1.00
      C148          C  0.5105966  0.5283804  0.0853605    0.00000       Uiso       1.00
       H61          H  0.4709555  0.5072869  0.1246125    0.00000       Uiso       1.00
       H62          H  0.5274864  0.5231847  0.1085299    0.00000       Uiso       1.00
      C149          C  0.4205540  0.4697463  0.1086993    0.00000       Uiso       1.00
      C150          C  0.4349834  0.4854815  0.1234432    0.00000       Uiso       1.00
      C151          C  0.4600840  0.4956015  0.1130292    0.00000       Uiso       1.00
      C152          C  0.4314004  0.4642598  0.0835929    0.00000       Uiso       1.00
      C153          C  0.4566171  0.4742523  0.0733411    0.00000       Uiso       1.00
      C154          C  0.4716165  0.4903989  0.0877846    0.00000       Uiso       1.00
       H63          H  0.4768129  0.5356495  0.1046788    0.00000       Uiso       1.00
       H64          H  0.4926888  0.5110754  0.0481362    0.00000       Uiso       1.00
      C155          C  0.5176652  0.4684835  0.1074399    0.00000       Uiso       1.00
      C156          C  0.5042377  0.4537388  0.0916947    0.00000       Uiso       1.00
      C157          C  0.4996718  0.4641548  0.0815763    0.00000       Uiso       1.00
      C158          C  0.5264287  0.4935916  0.1129385    0.00000       Uiso       1.00
      C159          C  0.5214562  0.5038450  0.1029476    0.00000       Uiso       1.00
      C160          C  0.5081732  0.4894008  0.0867882    0.00000       Uiso       1.00
       H65          H  0.5313255  0.4724956  0.0415379    0.00000       Uiso       1.00
       H66          H  0.5474254  0.5290441  0.0660950    0.00000       Uiso       1.00
      C161          C  0.5302584  0.4823307  0.9977410    0.00000       Uiso       1.00
      C162          C  0.5357513  0.4735638  0.0085885    0.00000       Uiso       1.00
      C163          C  0.5257580  0.4785369  0.0338063    0.00000       Uiso       1.00
      C164          C  0.5145153  0.4957611  0.0121683    0.00000       Uiso       1.00
      C165          C  0.5043931  0.5003259  0.0372685    0.00000       Uiso       1.00
      C166          C  0.5096018  0.4918238  0.0488032    0.00000       Uiso       1.00
       H67          H  0.4889190  0.4525738  0.0698743    0.00000       Uiso       1.00
       H68          H  0.4643449  0.4686825  0.0540006    0.00000       Uiso       1.00
      C167          C  0.5397474  0.5080988  0.1287425    0.00000       Uiso       1.00
      C168          C  0.5442674  0.4978721  0.1389474    0.00000       Uiso       1.00
      C169          C  0.4952597  0.4287490  0.0866246    0.00000       Uiso       1.00
      C170          C  0.4994708  0.4185354  0.0970888    0.00000       Uiso       1.00
      C171          C  0.4918952  0.5832074  0.1169337    0.00000       Uiso       1.00
      C172          C  0.5021182  0.6081594  0.1214548    0.00000       Uiso       1.00
      C173          C  0.5712462  0.5759562  0.0724470    0.00000       Uiso       1.00
      C174          C  0.5814574  0.6008480  0.0766635    0.00000       Uiso       1.00
      C175          C  0.5094472  0.5047401  0.0012251    0.00000       Uiso       1.00
      C176          C  0.5199156  0.5005271  0.9763353    0.00000       Uiso       1.00
      C177          C  0.4240414  0.4905431  0.1484333    0.00000       Uiso       1.00
      C178          C  0.3991507  0.4800780  0.1586438    0.00000       Uiso       1.00
       H69          H  0.4347761  0.5025190  0.1601404    0.00000       Uiso       1.00
       H70          H  0.3913189  0.4842756  0.1779511    0.00000       Uiso       1.00
       H71          H  0.4921980  0.3992269  0.0928842    0.00000       Uiso       1.00
       H72          H  0.4848018  0.4170414  0.0746416    0.00000       Uiso       1.00
       H73          H  0.5466902  0.5274431  0.1332444    0.00000       Uiso       1.00
       H74          H  0.5546142  0.5095835  0.1510213    0.00000       Uiso       1.00
       H75          H  0.6007655  0.6086847  0.0693957    0.00000       Uiso       1.00
       H76          H  0.5829569  0.5652256  0.0619891    0.00000       Uiso       1.00
       H77          H  0.4725532  0.5753089  0.1238757    0.00000       Uiso       1.00
       H78          H  0.4904102  0.6188731  0.1318015    0.00000       Uiso       1.00
       H79          H  0.5157133  0.5077987  0.9685026    0.00000       Uiso       1.00
       H80          H  0.4974620  0.5151960  0.0119582    0.00000       Uiso       1.00
      C179          C  0.1196463  0.7330147  0.5952792    0.00000       Uiso       1.00
      C180          C  0.1178824  0.7205435  0.6075916    0.00000       Uiso       1.00
      C181          C  0.1140273  0.6955377  0.5970150    0.00000       Uiso       1.00
      C182          C  0.1178824  0.7205435  0.5722597    0.00000       Uiso       1.00
      C183          C  0.1141813  0.6956184  0.5615845    0.00000       Uiso       1.00
      C184          C  0.1120350  0.6824612  0.5737486    0.00000       Uiso       1.00
       H81          H  0.1193411  0.7304451  0.5619369    0.00000       Uiso       1.00
       H82          H  0.1193411  0.7304451  0.6263572    0.00000       Uiso       1.00
      C185          C  0.1724585  0.4047352  0.5424739    0.00000       Uiso       1.00
      C186          C  0.1847707  0.4277548  0.5407098    0.00000       Uiso       1.00
      C187          C  0.1742224  0.4384302  0.5370082    0.00000       Uiso       1.00
      C188          C  0.1494388  0.3924229  0.5407099    0.00000       Uiso       1.00
      C189          C  0.1388649  0.4029995  0.5368540    0.00000       Uiso       1.00
      C190          C  0.1510484  0.4262656  0.5348610    0.00000       Uiso       1.00
       H83          H  0.1391161  0.3736573  0.5421686    0.00000       Uiso       1.00
       H84          H  0.2035365  0.4380776  0.5421686    0.00000       Uiso       1.00
      C191          C  0.1724583  0.4047354  0.2670000    0.00000       Uiso       1.00
      C192          C  0.1494386  0.3924231  0.2794712    0.00000       Uiso       1.00
      C193          C  0.1387641  0.4029697  0.3043965    0.00000       Uiso       1.00
      C194          C  0.1847705  0.4277550  0.2794712    0.00000       Uiso       1.00
      C195          C  0.1741955  0.4383270  0.3044774    0.00000       Uiso       1.00
      C196          C  0.1509294  0.4261423  0.3175539    0.00000       Uiso       1.00
       H85          H  0.2035363  0.4380778  0.2695696    0.00000       Uiso       1.00
       H86          H  0.1391159  0.3736575  0.2695696    0.00000       Uiso       1.00
      C197          C  0.8441727  0.4575407  0.5952792    0.00000       Uiso       1.00
      C198          C  0.8566440  0.4593047  0.5722596    0.00000       Uiso       1.00
      C199          C  0.8816501  0.4631599  0.5616858    0.00000       Uiso       1.00
      C200          C  0.8566440  0.4593047  0.6075916    0.00000       Uiso       1.00
      C201          C  0.8815693  0.4630052  0.5970427    0.00000       Uiso       1.00
      C202          C  0.8947263  0.4651516  0.5738682    0.00000       Uiso       1.00
      C203          C  0.0771861  0.5000058  0.5000081    0.00000       Uiso       1.00
       H87          H  0.8467423  0.4578459  0.6263571    0.00000       Uiso       1.00
       H88          H  0.8467423  0.4578459  0.5619368    0.00000       Uiso       1.00
       N17          N  0.1114335  0.6827555  0.6113955    0.00000       Uiso       1.00
       O33          O  0.1081268  0.6614118  0.6028792    0.00000       Uiso       1.00
       O34          O  0.1126619  0.6938545  0.6314337    0.00000       Uiso       1.00
       N18          N  0.8944326  0.4657573  0.5371186    0.00000       Uiso       1.00
       O35          O  0.9157767  0.4690642  0.5275977    0.00000       Uiso       1.00
       O36          O  0.8833337  0.4645317  0.5269523    0.00000       Uiso       1.00
       N19          N  0.1142968  0.3886163  0.5342587    0.00000       Uiso       1.00
       O37          O  0.1047744  0.3971308  0.5309513    0.00000       Uiso       1.00
       O38          O  0.1041317  0.3685774  0.5354853    0.00000       Uiso       1.00
       N20          N  0.1885841  0.4628931  0.3172541    0.00000       Uiso       1.00
       O39          O  0.1800741  0.4724169  0.3385984    0.00000       Uiso       1.00
       O40          O  0.2086230  0.4730550  0.3061504    0.00000       Uiso       1.00
       N21          N  0.1129763  0.6832383  0.5364603    0.00000       Uiso       1.00
       O41          O  0.1098301  0.6619291  0.5267712    0.00000       Uiso       1.00
       O42          O  0.1151559  0.6946245  0.5260163    0.00000       Uiso       1.00
       N22          N  0.8939494  0.4642110  0.6109927    0.00000       Uiso       1.00
       O43          O  0.9152587  0.4673567  0.6025191    0.00000       Uiso       1.00
       O44          O  0.8825629  0.4620323  0.6306435    0.00000       Uiso       1.00
       N23          N  0.1881728  0.4635538  0.5358014    0.00000       Uiso       1.00
       O45          O  0.1796996  0.4732433  0.5326546    0.00000       Uiso       1.00
       O46          O  0.2078234  0.4739973  0.5379813    0.00000       Uiso       1.00
       N24          N  0.1136420  0.3890186  0.3167788    0.00000       Uiso       1.00
       O47          O  0.1039544  0.3974917  0.3380886    0.00000       Uiso       1.00
       O48          O  0.1031978  0.3693677  0.3053935    0.00000       Uiso       1.00
      C204          C  0.1076293  0.6554543  0.5623210    0.00000       Uiso       1.00
      C205          C  0.1167799  0.6442661  0.5671442    0.00000       Uiso       1.00
      C206          C  0.1125728  0.6191669  0.5566619    0.00000       Uiso       1.00
      C207          C  0.0941587  0.6405333  0.5464342    0.00000       Uiso       1.00
      C208          C  0.0900213  0.6154699  0.5356763    0.00000       Uiso       1.00
      C209          C  0.0992058  0.6047181  0.5408266    0.00000       Uiso       1.00
       H89          H  0.0864577  0.6482934  0.5426718    0.00000       Uiso       1.00
       H90          H  0.1274983  0.6551114  0.5788483    0.00000       Uiso       1.00
      C210          C  0.1398775  0.4376934  0.5304541    0.00000       Uiso       1.00
      C211          C  0.1543145  0.4535720  0.5169746    0.00000       Uiso       1.00
      C212          C  0.1441478  0.4643311  0.5128370    0.00000       Uiso       1.00
      C213          C  0.1147176  0.4328810  0.5396142    0.00000       Uiso       1.00
      C214          C  0.1043102  0.4433644  0.5354069    0.00000       Uiso       1.00
      C215          C  0.1190626  0.4591901  0.5220310    0.00000       Uiso       1.00
       H91          H  0.1031366  0.4211861  0.5503414    0.00000       Uiso       1.00
       H92          H  0.1735384  0.4573271  0.5092662    0.00000       Uiso       1.00
      C216          C  0.1395010  0.4373108  0.3445606    0.00000       Uiso       1.00
      C217          C  0.1236134  0.4228709  0.3594794    0.00000       Uiso       1.00
      C218          C  0.1128518  0.4330372  0.3845451    0.00000       Uiso       1.00
      C219          C  0.1443215  0.4624711  0.3557493    0.00000       Uiso       1.00
      C220          C  0.1338389  0.4728777  0.3808469    0.00000       Uiso       1.00
      C221          C  0.1180030  0.4581259  0.3952969    0.00000       Uiso       1.00
       H93          H  0.1560219  0.4740531  0.3449111    0.00000       Uiso       1.00
       H94          H  0.1198556  0.4036446  0.3517108    0.00000       Uiso       1.00
      C222          C  0.9217330  0.4695578  0.5626955    0.00000       Uiso       1.00
      C223          C  0.9329207  0.4604000  0.5375351    0.00000       Uiso       1.00
      C224          C  0.9580203  0.4646097  0.5271257    0.00000       Uiso       1.00
      C225          C  0.9366546  0.4830352  0.5771313    0.00000       Uiso       1.00
      C226          C  0.9617183  0.4871725  0.5669639    0.00000       Uiso       1.00
      C227          C  0.9724694  0.4779834  0.5418789    0.00000       Uiso       1.00
       H95          H  0.9288934  0.4907399  0.5963539    0.00000       Uiso       1.00
       H96          H  0.9220713  0.4496731  0.5259618    0.00000       Uiso       1.00
      C228          C  0.9690223  0.4557199  0.5021294    0.00000       Uiso       1.00
      C229          C  0.9939744  0.4602431  0.4919052    0.00000       Uiso       1.00
      C230          C  0.0793129  0.4382651  0.5443039    0.00000       Uiso       1.00
      C231          C  0.0690884  0.4484719  0.5397842    0.00000       Uiso       1.00
       H97          H  0.0676005  0.4261994  0.5546594    0.00000       Uiso       1.00
       H98          H  0.0497457  0.4439788  0.5467360    0.00000       Uiso       1.00
       H99          H  0.9583102  0.4453661  0.4904212    0.00000       Uiso       1.00
      H100          H  0.0018760  0.4532970  0.4725634    0.00000       Uiso       1.00
      C232          C  0.0948547  0.5794455  0.5302645    0.00000       Uiso       1.00
      C233          C  0.1036177  0.5685987  0.5357609    0.00000       Uiso       1.00
      C234          C  0.0986474  0.5433832  0.5257679    0.00000       Uiso       1.00
      C235          C  0.0814251  0.5650180  0.5145223    0.00000       Uiso       1.00
      C236          C  0.0768581  0.5399187  0.5044044    0.00000       Uiso       1.00
      C237          C  0.0853627  0.5283856  0.5096112    0.00000       Uiso       1.00
      H101          H  0.1246154  0.5072928  0.4889073    0.00000       Uiso       1.00
      H102          H  0.1085322  0.5231899  0.4643567    0.00000       Uiso       1.00
      C238          C  0.1087025  0.4697525  0.5176814    0.00000       Uiso       1.00
      C239          C  0.1234465  0.4854877  0.5042433    0.00000       Uiso       1.00
      C240          C  0.1130321  0.4956074  0.4996767    0.00000       Uiso       1.00
      C241          C  0.0835958  0.4642656  0.5264549    0.00000       Uiso       1.00
      C242          C  0.0733437  0.4742578  0.5214823    0.00000       Uiso       1.00
      C243          C  0.0877872  0.4904045  0.5081861    0.00000       Uiso       1.00
      H103          H  0.1046815  0.5356551  0.5313454    0.00000       Uiso       1.00
      H104          H  0.0481382  0.5110804  0.5474382    0.00000       Uiso       1.00
      C244          C  0.1074423  0.4684888  0.4205676    0.00000       Uiso       1.00
      C245          C  0.0916970  0.4537441  0.4349958    0.00000       Uiso       1.00
      C246          C  0.0815786  0.4641601  0.4600956    0.00000       Uiso       1.00
      C247          C  0.1129408  0.4935969  0.4314133    0.00000       Uiso       1.00
      C248          C  0.1029499  0.5038503  0.4566298    0.00000       Uiso       1.00
      C249          C  0.0867904  0.4894060  0.4716280    0.00000       Uiso       1.00
      H105          H  0.0415396  0.4725002  0.4768209    0.00000       Uiso       1.00
      H106          H  0.0660967  0.5290488  0.4927118    0.00000       Uiso       1.00
      C250          C  0.9977423  0.4823349  0.5315199    0.00000       Uiso       1.00
      C251          C  0.0085898  0.4735680  0.5064124    0.00000       Uiso       1.00
      C252          C  0.0338080  0.4785415  0.4961611    0.00000       Uiso       1.00
      C253          C  0.0121698  0.4957655  0.5462654    0.00000       Uiso       1.00
      C254          C  0.0372703  0.5003306  0.5358522    0.00000       Uiso       1.00
      C255          C  0.0488052  0.4918287  0.5106070    0.00000       Uiso       1.00
      H107          H  0.0698766  0.4525791  0.4709694    0.00000       Uiso       1.00
      H108          H  0.0540029  0.4686877  0.5275253    0.00000       Uiso       1.00
      C256          C  0.1287449  0.5081041  0.4167978    0.00000       Uiso       1.00
      C257          C  0.1389498  0.4978775  0.3918466    0.00000       Uiso       1.00
      C258          C  0.0866270  0.4287544  0.4240543    0.00000       Uiso       1.00
      C259          C  0.0970912  0.4185408  0.3991657    0.00000       Uiso       1.00
      C260          C  0.1169363  0.5832130  0.5515656    0.00000       Uiso       1.00
      C261          C  0.1214574  0.6081650  0.5617732    0.00000       Uiso       1.00
      C262          C  0.0724486  0.5759607  0.5094504    0.00000       Uiso       1.00
      C263          C  0.0766650  0.6008524  0.5199142    0.00000       Uiso       1.00
      C264          C  0.0012266  0.5047445  0.5712554    0.00000       Uiso       1.00
      C265          C  0.9763365  0.5005313  0.5814642    0.00000       Uiso       1.00
      C266          C  0.1484368  0.4905497  0.4952569    0.00000       Uiso       1.00
      C267          C  0.1586477  0.4800849  0.4994721    0.00000       Uiso       1.00
      H109          H  0.1601440  0.5025255  0.4847908    0.00000       Uiso       1.00
      H110          H  0.1779552  0.4842827  0.4921941    0.00000       Uiso       1.00
      H111          H  0.0928866  0.3992324  0.3913350    0.00000       Uiso       1.00
      H112          H  0.0746440  0.4170467  0.4347875    0.00000       Uiso       1.00
      H113          H  0.1332468  0.5274484  0.4246971    0.00000       Uiso       1.00
      H114          H  0.1510237  0.5095890  0.3811373    0.00000       Uiso       1.00
      H115          H  0.0693970  0.6086889  0.5157106    0.00000       Uiso       1.00
      H116          H  0.0619904  0.5652300  0.4974673    0.00000       Uiso       1.00
      H117          H  0.1238786  0.5753148  0.5560671    0.00000       Uiso       1.00
      H118          H  0.1318043  0.6188789  0.5738479    0.00000       Uiso       1.00
      H119          H  0.9685037  0.5078028  0.6007706    0.00000       Uiso       1.00
      H120          H  0.0119598  0.5152006  0.5829632    0.00000       Uiso       1.00
      C268          C  0.1196440  0.9819087  0.5952771    0.00000       Uiso       1.00
      C269          C  0.1178802  0.9695966  0.5722575    0.00000       Uiso       1.00
      C270          C  0.1140247  0.9801732  0.5616835    0.00000       Uiso       1.00
      C271          C  0.1178802  0.0049279  0.6075891    0.00000       Uiso       1.00
      C272          C  0.1141788  0.0156032  0.5970404    0.00000       Uiso       1.00
      C273          C  0.1120325  0.0034392  0.5738655    0.00000       Uiso       1.00
      H121          H  0.1193389  0.0152506  0.6263548    0.00000       Uiso       1.00
      H122          H  0.1193391  0.9508311  0.5619349    0.00000       Uiso       1.00
      C274          C  0.1724531  0.0347173  0.2669941    0.00000       Uiso       1.00
      C275          C  0.1847655  0.0364814  0.2794655    0.00000       Uiso       1.00
      C276          C  0.1742173  0.0401827  0.3043906    0.00000       Uiso       1.00
      C277          C  0.1494333  0.0364811  0.2794652    0.00000       Uiso       1.00
      C278          C  0.1388595  0.0403365  0.3044711    0.00000       Uiso       1.00
      C279          C  0.1510431  0.0423295  0.3175468    0.00000       Uiso       1.00
      H123          H  0.1391105  0.0350222  0.2695635    0.00000       Uiso       1.00
      H124          H  0.2035314  0.0350228  0.2695640    0.00000       Uiso       1.00
      C280          C  0.1724506  0.3101888  0.5424658    0.00000       Uiso       1.00
      C281          C  0.1494308  0.2977174  0.5407018    0.00000       Uiso       1.00
      C282          C  0.1387566  0.2727919  0.5369975    0.00000       Uiso       1.00
      C283          C  0.1847631  0.2977177  0.5407021    0.00000       Uiso       1.00
      C284          C  0.1741884  0.2727114  0.5368428    0.00000       Uiso       1.00
      C285          C  0.1509223  0.2596346  0.5348476    0.00000       Uiso       1.00
      H125          H  0.2035288  0.3076194  0.5421609    0.00000       Uiso       1.00
      H126          H  0.1391079  0.3076189  0.5421604    0.00000       Uiso       1.00
      C286          C  0.8441679  0.9819063  0.5952746    0.00000       Uiso       1.00
      C287          C  0.8566394  0.0049256  0.6075867    0.00000       Uiso       1.00
      C288          C  0.8816455  0.0154998  0.5970101    0.00000       Uiso       1.00
      C289          C  0.8566394  0.9695943  0.5722552    0.00000       Uiso       1.00
      C290          C  0.8815647  0.9801434  0.5615795    0.00000       Uiso       1.00
      C291          C  0.8947217  0.0033178  0.5737435    0.00000       Uiso       1.00
      C292          C  0.0771813  0.0771801  0.4999999    0.00000       Uiso       1.00
      H127          H  0.8467378  0.9508287  0.5619325    0.00000       Uiso       1.00
      H128          H  0.8467376  0.0152482  0.6263523    0.00000       Uiso       1.00
       N25          N  0.1114309  0.9657930  0.5371148    0.00000       Uiso       1.00
       O49          O  0.1081240  0.9743093  0.5275941    0.00000       Uiso       1.00
       O50          O  0.1126596  0.9457548  0.5269472    0.00000       Uiso       1.00
       N26          N  0.8944278  0.0400670  0.6113921    0.00000       Uiso       1.00
       O51          O  0.9157718  0.0495882  0.6028761    0.00000       Uiso       1.00
       O52          O  0.8833288  0.0502330  0.6314313    0.00000       Uiso       1.00
       N27          N  0.1142912  0.0429316  0.3172512    0.00000       Uiso       1.00
       O53          O  0.1047689  0.0462386  0.3385950    0.00000       Uiso       1.00
       O54          O  0.1041259  0.0417049  0.3061507    0.00000       Uiso       1.00
       N28          N  0.1885774  0.2599349  0.5342438    0.00000       Uiso       1.00
       O55          O  0.1800676  0.2385905  0.5309333    0.00000       Uiso       1.00
       O56          O  0.2086162  0.2710387  0.5354707    0.00000       Uiso       1.00
       N29          N  0.1129735  0.0407273  0.6109893    0.00000       Uiso       1.00
       O57          O  0.1098270  0.0504164  0.6025155    0.00000       Uiso       1.00
       O58          O  0.1151531  0.0511711  0.6306397    0.00000       Uiso       1.00
       N30          N  0.8939448  0.9661939  0.5364556    0.00000       Uiso       1.00
       O59          O  0.9152541  0.9746677  0.5267659    0.00000       Uiso       1.00
       O60          O  0.8825585  0.9465430  0.5260125    0.00000       Uiso       1.00
       N31          N  0.1881680  0.0413895  0.3167705    0.00000       Uiso       1.00
       O61          O  0.1796947  0.0445360  0.3380798    0.00000       Uiso       1.00
       O62          O  0.2078185  0.0392099  0.3053839    0.00000       Uiso       1.00
       N32          N  0.1136345  0.2604094  0.5357860    0.00000       Uiso       1.00
       O63          O  0.1039472  0.2390996  0.5326368    0.00000       Uiso       1.00
       O64          O  0.1031900  0.2717946  0.5379645    0.00000       Uiso       1.00
      C293          C  0.1076264  0.0148669  0.5626920    0.00000       Uiso       1.00
      C294          C  0.1167770  0.0100441  0.5375304    0.00000       Uiso       1.00
      C295          C  0.1125695  0.0205264  0.5271206    0.00000       Uiso       1.00
      C296          C  0.0941556  0.0307535  0.5771281    0.00000       Uiso       1.00
      C297          C  0.0900178  0.0415114  0.5669601    0.00000       Uiso       1.00
      C298          C  0.0992023  0.0363615  0.5418739    0.00000       Uiso       1.00
      H129          H  0.0864546  0.0345156  0.5963513    0.00000       Uiso       1.00
      H130          H  0.1274952  0.9983404  0.5259533    0.00000       Uiso       1.00
      C299          C  0.1398723  0.0467361  0.3445521    0.00000       Uiso       1.00
      C300          C  0.1543093  0.0602156  0.3594732    0.00000       Uiso       1.00
      C301          C  0.1441427  0.0643529  0.3845363    0.00000       Uiso       1.00
      C302          C  0.1147125  0.0375757  0.3557392    0.00000       Uiso       1.00
      C303          C  0.1043052  0.0417826  0.3808368    0.00000       Uiso       1.00
      C304          C  0.1190575  0.0551586  0.3952861    0.00000       Uiso       1.00
      H131          H  0.1031314  0.0268485  0.3448981    0.00000       Uiso       1.00
      H132          H  0.1735332  0.0679242  0.3517130    0.00000       Uiso       1.00
      C305          C  0.1394942  0.2326279  0.5304378    0.00000       Uiso       1.00
      C306          C  0.1236066  0.2177091  0.5169666    0.00000       Uiso       1.00
      C307          C  0.1128454  0.1926433  0.5128286    0.00000       Uiso       1.00
      C308          C  0.1443150  0.2214392  0.5395887    0.00000       Uiso       1.00
      C309          C  0.1338327  0.1963416  0.5353805    0.00000       Uiso       1.00
      C310          C  0.1179968  0.1818915  0.5220144    0.00000       Uiso       1.00
      H133          H  0.1560154  0.2322774  0.5503086    0.00000       Uiso       1.00
      H134          H  0.1198485  0.2254777  0.5092667    0.00000       Uiso       1.00
      C311          C  0.9217286  0.0144908  0.5623159    0.00000       Uiso       1.00
      C312          C  0.9329159  0.0396512  0.5671308    0.00000       Uiso       1.00
      C313          C  0.9580154  0.0500609  0.5566506    0.00000       Uiso       1.00
      C314          C  0.9366503  0.0000552  0.5464362    0.00000       Uiso       1.00
      C315          C  0.9617139  0.0102230  0.5356776    0.00000       Uiso       1.00
      C316          C  0.9724647  0.0353081  0.5408224    0.00000       Uiso       1.00
      H135          H  0.9288890  0.9808328  0.5426795    0.00000       Uiso       1.00
      H136          H  0.9220663  0.0512244  0.5788265    0.00000       Uiso       1.00
      C317          C  0.9690171  0.0750573  0.5617553    0.00000       Uiso       1.00
      C318          C  0.9939691  0.0852819  0.5515509    0.00000       Uiso       1.00
      C319          C  0.0793079  0.0328853  0.3918376    0.00000       Uiso       1.00
      C320          C  0.0690834  0.0374047  0.4167883    0.00000       Uiso       1.00
      H137          H  0.0675955  0.0225299  0.3811288    0.00000       Uiso       1.00
      H138          H  0.0497408  0.0304527  0.4246858    0.00000       Uiso       1.00
      H139          H  0.9583049  0.0867653  0.5738215    0.00000       Uiso       1.00
      H140          H  0.0018705  0.1046236  0.5560446    0.00000       Uiso       1.00
      C321          C  0.0948508  0.0469236  0.5315145    0.00000       Uiso       1.00
      C322          C  0.1036138  0.0414275  0.5064086    0.00000       Uiso       1.00
      C323          C  0.0986432  0.0514206  0.4961565    0.00000       Uiso       1.00
      C324          C  0.0814210  0.0626655  0.5462585    0.00000       Uiso       1.00
      C325          C  0.0768537  0.0727835  0.5358441    0.00000       Uiso       1.00
      C326          C  0.0853582  0.0675770  0.5105999    0.00000       Uiso       1.00
      H141          H  0.1246105  0.0882817  0.4709591    0.00000       Uiso       1.00
      H142          H  0.1085272  0.1128315  0.5274893    0.00000       Uiso       1.00
      C327          C  0.1086975  0.0595079  0.4205579    0.00000       Uiso       1.00
      C328          C  0.1234415  0.0729460  0.4349872    0.00000       Uiso       1.00
      C329          C  0.1130273  0.0775123  0.4600876    0.00000       Uiso       1.00
      C330          C  0.0835908  0.0507340  0.4314039    0.00000       Uiso       1.00
      C331          C  0.0733388  0.0557063  0.4566205    0.00000       Uiso       1.00
      C332          C  0.0877823  0.0690025  0.4716198    0.00000       Uiso       1.00
      H143          H  0.1046773  0.0458433  0.4768169    0.00000       Uiso       1.00
      H144          H  0.0481339  0.0297498  0.4926921    0.00000       Uiso       1.00
      C333          C  0.1074364  0.1566207  0.5176673    0.00000       Uiso       1.00
      C334          C  0.0916911  0.1421926  0.5042398    0.00000       Uiso       1.00
      C335          C  0.0815731  0.1170926  0.4996742    0.00000       Uiso       1.00
      C336          C  0.1129353  0.1457750  0.5264311    0.00000       Uiso       1.00
      C337          C  0.1029447  0.1205585  0.5214589    0.00000       Uiso       1.00
      C338          C  0.0867852  0.1055603  0.5081759    0.00000       Uiso       1.00
      H145          H  0.0415343  0.1003668  0.5313275    0.00000       Uiso       1.00
      H146          H  0.0660921  0.0844760  0.5474281    0.00000       Uiso       1.00
      C339          C  0.9977376  0.0456674  0.5302604    0.00000       Uiso       1.00
      C340          C  0.0085848  0.0707749  0.5357531    0.00000       Uiso       1.00
      C341          C  0.0338029  0.0810265  0.5257601    0.00000       Uiso       1.00
      C342          C  0.0121654  0.0309221  0.5145179    0.00000       Uiso       1.00
      C343          C  0.0372658  0.0413356  0.5043960    0.00000       Uiso       1.00
      C344          C  0.0488003  0.0665809  0.5096045    0.00000       Uiso       1.00
      H147          H  0.0698710  0.1062188  0.4889214    0.00000       Uiso       1.00
      H148          H  0.0539980  0.0496630  0.4643480    0.00000       Uiso       1.00
      C345          C  0.1287394  0.1603905  0.5397498    0.00000       Uiso       1.00
      C346          C  0.1389440  0.1853418  0.5442695    0.00000       Uiso       1.00
      C347          C  0.0866208  0.1531341  0.4952615    0.00000       Uiso       1.00
      C348          C  0.0970847  0.1780227  0.4994723    0.00000       Uiso       1.00
      C349          C  0.1169327  0.0256231  0.4918998    0.00000       Uiso       1.00
      C350          C  0.1214541  0.0154154  0.5021231    0.00000       Uiso       1.00
      C351          C  0.0724445  0.0677371  0.5712493    0.00000       Uiso       1.00
      C352          C  0.0766613  0.0572733  0.5814607    0.00000       Uiso       1.00
      C353          C  0.0012224  0.0059321  0.5094501    0.00000       Uiso       1.00
      C354          C  0.9763321  0.9957232  0.5199180    0.00000       Uiso       1.00
      C355          C  0.1484318  0.0819327  0.4240455    0.00000       Uiso       1.00
      C356          C  0.1586426  0.0777178  0.3991551    0.00000       Uiso       1.00
      H149          H  0.1601390  0.0923988  0.4347803    0.00000       Uiso       1.00
      H150          H  0.1779501  0.0849961  0.3913235    0.00000       Uiso       1.00
      H151          H  0.0928799  0.1858535  0.4921993    0.00000       Uiso       1.00
      H152          H  0.0746378  0.1424008  0.4848036    0.00000       Uiso       1.00
      H153          H  0.1332415  0.1524912  0.5466928    0.00000       Uiso       1.00
      H154          H  0.1510179  0.1960512  0.5546164    0.00000       Uiso       1.00
      H155          H  0.0693933  0.0614766  0.6007686    0.00000       Uiso       1.00
      H156          H  0.0619862  0.0797201  0.5829597    0.00000       Uiso       1.00
      H157          H  0.1238749  0.0211218  0.4725580    0.00000       Uiso       1.00
      H158          H  0.1318011  0.0033408  0.4904155    0.00000       Uiso       1.00
      H159          H  0.9684995  0.9764168  0.5157160    0.00000       Uiso       1.00
      H160          H  0.0119555  0.9942247  0.4974653    0.00000       Uiso       1.00
      C357          C  0.5952694  0.9819041  0.1196424    0.00000       Uiso       1.00
      C358          C  0.6075819  0.0049234  0.1178783    0.00000       Uiso       1.00
      C359          C  0.5970050  0.0154971  0.1140228    0.00000       Uiso       1.00
      C360          C  0.5722497  0.9695917  0.1178783    0.00000       Uiso       1.00
      C361          C  0.5615740  0.9801401  0.1141769    0.00000       Uiso       1.00
      C362          C  0.5737384  0.0033147  0.1120303    0.00000       Uiso       1.00
      H161          H  0.5619270  0.9508261  0.1193371    0.00000       Uiso       1.00
      H162          H  0.6263477  0.0152462  0.1193371    0.00000       Uiso       1.00
      C363          C  0.5424576  0.3101834  0.1724478    0.00000       Uiso       1.00
      C364          C  0.5406937  0.2977122  0.1847602    0.00000       Uiso       1.00
      C365          C  0.5369924  0.2727872  0.1742123    0.00000       Uiso       1.00
      C366          C  0.5406937  0.2977122  0.1494283    0.00000       Uiso       1.00
      C367          C  0.5368384  0.2727064  0.1388548    0.00000       Uiso       1.00
      C368          C  0.5348455  0.2596309  0.1510385    0.00000       Uiso       1.00
      H163          H  0.5421523  0.3076138  0.1391055    0.00000       Uiso       1.00
      H164          H  0.5421524  0.3076138  0.2035258    0.00000       Uiso       1.00
      C369          C  0.2669837  0.0347092  0.1724477    0.00000       Uiso       1.00
      C370          C  0.2794551  0.0364732  0.1494282    0.00000       Uiso       1.00
      C371          C  0.3043808  0.0401778  0.1387540    0.00000       Uiso       1.00
      C372          C  0.2794551  0.0364732  0.1847601    0.00000       Uiso       1.00
      C373          C  0.3044617  0.0403328  0.1741854    0.00000       Uiso       1.00
      C374          C  0.3175384  0.0423281  0.1509195    0.00000       Uiso       1.00
      H165          H  0.2695533  0.0350144  0.2035257    0.00000       Uiso       1.00
      H166          H  0.2695533  0.0350144  0.1391053    0.00000       Uiso       1.00
      C375          C  0.5952694  0.9819040  0.8441687    0.00000       Uiso       1.00
      C376          C  0.5722497  0.9695917  0.8566399    0.00000       Uiso       1.00
      C377          C  0.5616755  0.9801683  0.8816456    0.00000       Uiso       1.00
      C378          C  0.6075819  0.0049234  0.8566399    0.00000       Uiso       1.00
      C379          C  0.5970328  0.0155990  0.8815649    0.00000       Uiso       1.00
      C380          C  0.5738579  0.0034347  0.8947216    0.00000       Uiso       1.00
      C381          C  0.4999952  0.0771781  0.0771788    0.00000       Uiso       1.00
      H167          H  0.6263477  0.0152462  0.8467383    0.00000       Uiso       1.00
      H168          H  0.5619271  0.9508261  0.8467383    0.00000       Uiso       1.00
       N33          N  0.6113853  0.0400658  0.1114288    0.00000       Uiso       1.00
       O65          O  0.6028686  0.0495862  0.1081218    0.00000       Uiso       1.00
       O66          O  0.6314237  0.0502337  0.1126574    0.00000       Uiso       1.00
       N34          N  0.5371081  0.9657860  0.8944280    0.00000       Uiso       1.00
       O67          O  0.5275869  0.9743021  0.9157717    0.00000       Uiso       1.00
       O68          O  0.5269420  0.9457467  0.8833292    0.00000       Uiso       1.00
       N35          N  0.5342431  0.2599261  0.1142868    0.00000       Uiso       1.00
       O69          O  0.5309361  0.2385824  0.1047648    0.00000       Uiso       1.00
       O70          O  0.5354695  0.2710264  0.1041216    0.00000       Uiso       1.00
       N36          N  0.3172385  0.0429322  0.1885743    0.00000       Uiso       1.00
       O71          O  0.3385832  0.0462430  0.1800645    0.00000       Uiso       1.00
       O72          O  0.3061347  0.0417053  0.2086129    0.00000       Uiso       1.00
       N37          N  0.5364497  0.9661909  0.1129716    0.00000       Uiso       1.00
       O73          O  0.5267603  0.9746644  0.1098251    0.00000       Uiso       1.00
       O74          O  0.5260059  0.9465405  0.1151514    0.00000       Uiso       1.00
       N38          N  0.6109825  0.0407230  0.8939447    0.00000       Uiso       1.00
       O75          O  0.6025087  0.0504127  0.9152536    0.00000       Uiso       1.00
       O76          O  0.6306335  0.0511662  0.8825583    0.00000       Uiso       1.00
       N39          N  0.5357859  0.2604074  0.1881629    0.00000       Uiso       1.00
       O77          O  0.5326394  0.2390983  0.1796900    0.00000       Uiso       1.00
       O78          O  0.5379656  0.2717942  0.2078132    0.00000       Uiso       1.00
       N40          N  0.3167633  0.0413893  0.1136321    0.00000       Uiso       1.00
       O79          O  0.3380734  0.0445388  0.1039449    0.00000       Uiso       1.00
       O80          O  0.3053779  0.0392106  0.1031878    0.00000       Uiso       1.00
      C382          C  0.5623104  0.0144879  0.1076242    0.00000       Uiso       1.00
      C383          C  0.5671331  0.0396494  0.1167744    0.00000       Uiso       1.00
      C384          C  0.5566505  0.0500590  0.1125670    0.00000       Uiso       1.00
      C385          C  0.5464235  0.0000516  0.0941537    0.00000       Uiso       1.00
      C386          C  0.5356652  0.0102192  0.0900158    0.00000       Uiso       1.00
      C387          C  0.5408152  0.0353054  0.0992000    0.00000       Uiso       1.00
      H169          H  0.5426611  0.9808285  0.0864529    0.00000       Uiso       1.00
      H170          H  0.5788373  0.0512267  0.1274928    0.00000       Uiso       1.00
      C388          C  0.5304390  0.2326256  0.1398680    0.00000       Uiso       1.00
      C389          C  0.5169595  0.2177045  0.1543050    0.00000       Uiso       1.00
      C390          C  0.5128223  0.1926415  0.1441386    0.00000       Uiso       1.00
      C391          C  0.5395994  0.2214386  0.1147085    0.00000       Uiso       1.00
      C392          C  0.5353926  0.1963410  0.1043014    0.00000       Uiso       1.00
      C393          C  0.5220166  0.1818917  0.1190538    0.00000       Uiso       1.00
      H171          H  0.5503266  0.2322796  0.1031274    0.00000       Uiso       1.00
      H172          H  0.5092509  0.2254647  0.1735286    0.00000       Uiso       1.00
      C394          C  0.3445455  0.0467382  0.1394915    0.00000       Uiso       1.00
      C395          C  0.3594643  0.0602094  0.1236039    0.00000       Uiso       1.00
      C396          C  0.3845305  0.0643477  0.1128427    0.00000       Uiso       1.00
      C397          C  0.3557346  0.0375876  0.1443124    0.00000       Uiso       1.00
      C398          C  0.3808325  0.0417962  0.1338301    0.00000       Uiso       1.00
      C399          C  0.3952825  0.0551622  0.1179942    0.00000       Uiso       1.00
      H173          H  0.3448963  0.0268677  0.1560128    0.00000       Uiso       1.00
      H174          H  0.3516955  0.0679091  0.1198459    0.00000       Uiso       1.00
      C400          C  0.5626850  0.0148623  0.9217280    0.00000       Uiso       1.00
      C401          C  0.5375242  0.0100471  0.9329153    0.00000       Uiso       1.00
      C402          C  0.5271145  0.0205272  0.9580145    0.00000       Uiso       1.00
      C403          C  0.5771207  0.0307423  0.9366494    0.00000       Uiso       1.00
      C404          C  0.5669529  0.0415008  0.9617128    0.00000       Uiso       1.00
      C405          C  0.5418676  0.0363557  0.9724636    0.00000       Uiso       1.00
      H175          H  0.5963436  0.0344992  0.9288886    0.00000       Uiso       1.00
      H176          H  0.5259506  0.9983515  0.9220660    0.00000       Uiso       1.00
      C406          C  0.5021178  0.0154222  0.9690161    0.00000       Uiso       1.00
      C407          C  0.4918932  0.0256266  0.9939678    0.00000       Uiso       1.00
      C408          C  0.5442898  0.1853403  0.0793045    0.00000       Uiso       1.00
      C409          C  0.5397705  0.1603896  0.0690804    0.00000       Uiso       1.00
      H177          H  0.5546453  0.1960490  0.0675921    0.00000       Uiso       1.00
      H178          H  0.5467226  0.1524921  0.0497379    0.00000       Uiso       1.00
      H179          H  0.4904096  0.0033559  0.9583041    0.00000       Uiso       1.00
      H180          H  0.4725510  0.0211327  0.0018692    0.00000       Uiso       1.00
      C410          C  0.5302527  0.0456645  0.0948485    0.00000       Uiso       1.00
      C411          C  0.5357488  0.0707703  0.1036112    0.00000       Uiso       1.00
      C412          C  0.5257553  0.0810222  0.0986405    0.00000       Uiso       1.00
      C413          C  0.5145105  0.0309202  0.0814189    0.00000       Uiso       1.00
      C414          C  0.5043922  0.0413343  0.0768515    0.00000       Uiso       1.00
      C415          C  0.5095987  0.0665784  0.0853558    0.00000       Uiso       1.00
      H181          H  0.4888937  0.1062188  0.1246074    0.00000       Uiso       1.00
      H182          H  0.4643437  0.0496886  0.1085248    0.00000       Uiso       1.00
      C416          C  0.5176674  0.1566200  0.1086941    0.00000       Uiso       1.00
      C417          C  0.5042293  0.1421906  0.1234381    0.00000       Uiso       1.00
      C418          C  0.4996631  0.1170904  0.1130241    0.00000       Uiso       1.00
      C419          C  0.5264412  0.1457740  0.0835877    0.00000       Uiso       1.00
      C420          C  0.5214691  0.1205575  0.0733360    0.00000       Uiso       1.00
      C421          C  0.5081729  0.1055581  0.0877795    0.00000       Uiso       1.00
      H183          H  0.5313327  0.1003617  0.1046744    0.00000       Uiso       1.00
      H184          H  0.5474260  0.0844864  0.0481316    0.00000       Uiso       1.00
      C422          C  0.4205536  0.0595097  0.1074339    0.00000       Uiso       1.00
      C423          C  0.4349818  0.0729372  0.0916886    0.00000       Uiso       1.00
      C424          C  0.4600821  0.0775032  0.0815706    0.00000       Uiso       1.00
      C425          C  0.4313997  0.0507462  0.1129328    0.00000       Uiso       1.00
      C426          C  0.4566166  0.0557187  0.1029422    0.00000       Uiso       1.00
      C427          C  0.4716147  0.0690017  0.0867828    0.00000       Uiso       1.00
      H185          H  0.4768081  0.0458501  0.0415324    0.00000       Uiso       1.00
      H186          H  0.4926996  0.0297500  0.0660901    0.00000       Uiso       1.00
      C428          C  0.5315082  0.0469176  0.9977361    0.00000       Uiso       1.00
      C429          C  0.5064002  0.0414247  0.0085833    0.00000       Uiso       1.00
      C430          C  0.4961486  0.0514176  0.0338010    0.00000       Uiso       1.00
      C431          C  0.5462536  0.0626605  0.0121636    0.00000       Uiso       1.00
      C432          C  0.5358400  0.0727823  0.0372638    0.00000       Uiso       1.00
      C433          C  0.5105945  0.0675736  0.0487982    0.00000       Uiso       1.00
      H187          H  0.4709558  0.0882559  0.0698686    0.00000       Uiso       1.00
      H188          H  0.5275123  0.1128300  0.0539955    0.00000       Uiso       1.00
      C434          C  0.4167842  0.0374275  0.1287368    0.00000       Uiso       1.00
      C435          C  0.3918326  0.0329075  0.1389414    0.00000       Uiso       1.00
      C436          C  0.4240399  0.0819152  0.0866183    0.00000       Uiso       1.00
      C437          C  0.3991510  0.0777040  0.0970822    0.00000       Uiso       1.00
      C438          C  0.5515535  0.0852793  0.1169298    0.00000       Uiso       1.00
      C439          C  0.5617614  0.0750564  0.1214512    0.00000       Uiso       1.00
      C440          C  0.5094390  0.0059294  0.0724427    0.00000       Uiso       1.00
      C441          C  0.5199028  0.9957185  0.0766595    0.00000       Uiso       1.00
      C442          C  0.5712439  0.0677285  0.0012207    0.00000       Uiso       1.00
      C443          C  0.5814532  0.0572606  0.9763310    0.00000       Uiso       1.00
      C444          C  0.4952426  0.1531323  0.1484281    0.00000       Uiso       1.00
      C445          C  0.4994574  0.1780227  0.1586386    0.00000       Uiso       1.00
      H189          H  0.4847765  0.1423975  0.1601353    0.00000       Uiso       1.00
      H190          H  0.4921791  0.1858542  0.1779459    0.00000       Uiso       1.00
      H191          H  0.3913200  0.0849768  0.0928773    0.00000       Uiso       1.00
      H192          H  0.4347732  0.0923730  0.0746352    0.00000       Uiso       1.00
      H193          H  0.4246837  0.0304847  0.1332390    0.00000       Uiso       1.00
      H194          H  0.3811232  0.0225606  0.1510153    0.00000       Uiso       1.00
      H195          H  0.5156994  0.9764106  0.0693918    0.00000       Uiso       1.00
      H196          H  0.4974555  0.9942192  0.0619846    0.00000       Uiso       1.00
      H197          H  0.5560547  0.1046211  0.1238718    0.00000       Uiso       1.00
      H198          H  0.5738363  0.0867641  0.1317981    0.00000       Uiso       1.00
      H199          H  0.6007599  0.0614629  0.9684985    0.00000       Uiso       1.00
      H200          H  0.5829517  0.0797136  0.0119540    0.00000       Uiso       1.00
      C446          C  0.1196441  0.9819087  0.8441732    0.00000       Uiso       1.00
      C447          C  0.1178803  0.0049279  0.8566442    0.00000       Uiso       1.00
      C448          C  0.1140248  0.0155017  0.8816501    0.00000       Uiso       1.00
      C449          C  0.1178802  0.9695966  0.8566446    0.00000       Uiso       1.00
      C450          C  0.1141788  0.9801450  0.8815698    0.00000       Uiso       1.00
      C451          C  0.1120325  0.0033195  0.8947268    0.00000       Uiso       1.00
      H201          H  0.1193392  0.9508311  0.8467430    0.00000       Uiso       1.00
      H202          H  0.1193389  0.0152506  0.8467425    0.00000       Uiso       1.00
      C452          C  0.1724507  0.3101890  0.1724533    0.00000       Uiso       1.00
      C453          C  0.1847632  0.2977180  0.1494339    0.00000       Uiso       1.00
      C454          C  0.1742152  0.2727929  0.1387584    0.00000       Uiso       1.00
      C455          C  0.1494309  0.2977176  0.1847655    0.00000       Uiso       1.00
      C456          C  0.1388574  0.2727117  0.1741888    0.00000       Uiso       1.00
      C457          C  0.1510412  0.2596364  0.1509229    0.00000       Uiso       1.00
      H203          H  0.1391080  0.3076191  0.2035310    0.00000       Uiso       1.00
      H204          H  0.2035289  0.3076197  0.1391112    0.00000       Uiso       1.00
      C458          C  0.1724530  0.0347173  0.1724556    0.00000       Uiso       1.00
      C459          C  0.1494332  0.0364810  0.1847677    0.00000       Uiso       1.00
      C460          C  0.1387587  0.0401853  0.1742208    0.00000       Uiso       1.00
      C461          C  0.1847654  0.0364813  0.1494361    0.00000       Uiso       1.00
      C462          C  0.1741904  0.0403406  0.1388638    0.00000       Uiso       1.00
      C463          C  0.1509242  0.0423356  0.1510481    0.00000       Uiso       1.00
      H205          H  0.2035313  0.0350228  0.1391135    0.00000       Uiso       1.00
      H206          H  0.1391104  0.0350222  0.2035333    0.00000       Uiso       1.00
      C464          C  0.8441678  0.9819064  0.1196445    0.00000       Uiso       1.00
      C465          C  0.8566394  0.9695942  0.1178808    0.00000       Uiso       1.00
      C466          C  0.8816454  0.9801712  0.1140259    0.00000       Uiso       1.00
      C467          C  0.8566394  0.0049256  0.1178805    0.00000       Uiso       1.00
      C468          C  0.8815647  0.0156016  0.1141802    0.00000       Uiso       1.00
      C469          C  0.8947217  0.0034377  0.1120342    0.00000       Uiso       1.00
      C470          C  0.0771812  0.0771832  0.0771823    0.00000       Uiso       1.00
      H207          H  0.8467376  0.0152482  0.1193390    0.00000       Uiso       1.00
      H208          H  0.8467377  0.9508287  0.1193396    0.00000       Uiso       1.00
       N41          N  0.1114307  0.0400702  0.8944321    0.00000       Uiso       1.00
       O81          O  0.1081237  0.0495907  0.9157760    0.00000       Uiso       1.00
       O82          O  0.1126591  0.0502379  0.8833330    0.00000       Uiso       1.00
       N42          N  0.8944281  0.9657893  0.1114288    0.00000       Uiso       1.00
       O83          O  0.9157721  0.9743056  0.1081223    0.00000       Uiso       1.00
       O84          O  0.8833293  0.9457499  0.1126545    0.00000       Uiso       1.00
       N43          N  0.1142892  0.2599313  0.1885718    0.00000       Uiso       1.00
       O85          O  0.1047672  0.2385875  0.1800573    0.00000       Uiso       1.00
       O86          O  0.1041239  0.2710315  0.2086106    0.00000       Uiso       1.00
       N44          N  0.1885793  0.0429400  0.1142977    0.00000       Uiso       1.00
       O87          O  0.1800693  0.0462505  0.1047736    0.00000       Uiso       1.00
       O88          O  0.2086183  0.0417134  0.1041360    0.00000       Uiso       1.00
       N45          N  0.1129738  0.9661959  0.8939501    0.00000       Uiso       1.00
       O89          O  0.1098274  0.9746696  0.9152593    0.00000       Uiso       1.00
       O90          O  0.1151537  0.9465456  0.8825639    0.00000       Uiso       1.00
       N46          N  0.8939445  0.0407256  0.1129745    0.00000       Uiso       1.00
       O91          O  0.9152537  0.0504155  0.1098290    0.00000       Uiso       1.00
       O92          O  0.8825579  0.0511685  0.1151529    0.00000       Uiso       1.00
       N47          N  0.1881660  0.2604133  0.1136350    0.00000       Uiso       1.00
       O93          O  0.1796930  0.2391041  0.1039454    0.00000       Uiso       1.00
       O94          O  0.2078165  0.2718002  0.1031916    0.00000       Uiso       1.00
       N48          N  0.1136365  0.0413965  0.1881715    0.00000       Uiso       1.00
       O95          O  0.1039489  0.0445456  0.1796982    0.00000       Uiso       1.00
       O96          O  0.1031921  0.0392177  0.2078224    0.00000       Uiso       1.00
      C471          C  0.1076265  0.0144927  0.9217337    0.00000       Uiso       1.00
      C472          C  0.1167767  0.0396543  0.9329220    0.00000       Uiso       1.00
      C473          C  0.1125694  0.0500639  0.9580213    0.00000       Uiso       1.00
      C474          C  0.0941560  0.0000564  0.9366548    0.00000       Uiso       1.00
      C475          C  0.0900182  0.0102241  0.9617183    0.00000       Uiso       1.00
      C476          C  0.0992023  0.0353103  0.9724700    0.00000       Uiso       1.00
      H209          H  0.0864548  0.9808334  0.9288946    0.00000       Uiso       1.00
      H210          H  0.1274951  0.0512316  0.9220767    0.00000       Uiso       1.00
      C477          C  0.1398707  0.2326311  0.1394950    0.00000       Uiso       1.00
      C478          C  0.1543079  0.2177102  0.1236166    0.00000       Uiso       1.00
      C479          C  0.1441415  0.1926472  0.1128575    0.00000       Uiso       1.00
      C480          C  0.1147109  0.2214437  0.1443071    0.00000       Uiso       1.00
      C481          C  0.1043038  0.1963461  0.1338236    0.00000       Uiso       1.00
      C482          C  0.1190564  0.1818970  0.1179982    0.00000       Uiso       1.00
      H211          H  0.1031296  0.2322845  0.1560017    0.00000       Uiso       1.00
      H212          H  0.1735318  0.2254706  0.1198618    0.00000       Uiso       1.00
      C483          C  0.1394958  0.0467454  0.1398793    0.00000       Uiso       1.00
      C484          C  0.1236080  0.0602162  0.1543189    0.00000       Uiso       1.00
      C485          C  0.1128465  0.0643542  0.1441523    0.00000       Uiso       1.00
      C486          C  0.1443167  0.0375947  0.1147189    0.00000       Uiso       1.00
      C487          C  0.1338341  0.0418030  0.1043119    0.00000       Uiso       1.00
      C488          C  0.1179979  0.0551687  0.1190636    0.00000       Uiso       1.00
      H213          H  0.1560173  0.0268750  0.1031371    0.00000       Uiso       1.00
      H214          H  0.1198500  0.0679160  0.1735453    0.00000       Uiso       1.00
      C489          C  0.9217285  0.0148656  0.1076284    0.00000       Uiso       1.00
      C490          C  0.9329161  0.0100507  0.1167865    0.00000       Uiso       1.00
      C491          C  0.9580157  0.0205312  0.1125771    0.00000       Uiso       1.00
      C492          C  0.9366499  0.0307456  0.0941510    0.00000       Uiso       1.00
      C493          C  0.9617136  0.0415044  0.0900140    0.00000       Uiso       1.00
      C494          C  0.9724647  0.0363596  0.0992034    0.00000       Uiso       1.00
      H215          H  0.9288889  0.0345022  0.0864460    0.00000       Uiso       1.00
      H216          H  0.9220665  0.9983551  0.1275133    0.00000       Uiso       1.00
      C495          C  0.9690176  0.0154265  0.1214672    0.00000       Uiso       1.00
      C496          C  0.9939696  0.0256311  0.1169443    0.00000       Uiso       1.00
      C497          C  0.0793065  0.1853451  0.1389227    0.00000       Uiso       1.00
      C498          C  0.0690823  0.1603943  0.1287158    0.00000       Uiso       1.00
      H217          H  0.0675939  0.1960536  0.1509881    0.00000       Uiso       1.00
      H218          H  0.0497397  0.1524966  0.1332086    0.00000       Uiso       1.00
      H219          H  0.9583055  0.0033601  0.1318211    0.00000       Uiso       1.00
      H220          H  0.0018712  0.0211374  0.1238907    0.00000       Uiso       1.00
      C499          C  0.0948509  0.0456695  0.9977428    0.00000       Uiso       1.00
      C500          C  0.1036135  0.0707754  0.0085893    0.00000       Uiso       1.00
      C501          C  0.0986429  0.0810273  0.0338049    0.00000       Uiso       1.00
      C502          C  0.0814212  0.0309253  0.0121700    0.00000       Uiso       1.00
      C503          C  0.0768539  0.0413394  0.0372694    0.00000       Uiso       1.00
      C504          C  0.0853582  0.0665836  0.0488025    0.00000       Uiso       1.00
      H221          H  0.1246103  0.1062245  0.0698958    0.00000       Uiso       1.00
      H222          H  0.1085278  0.0496943  0.0539988    0.00000       Uiso       1.00
      C505          C  0.1086966  0.1566253  0.1074358    0.00000       Uiso       1.00
      C506          C  0.1234409  0.1421962  0.0917008    0.00000       Uiso       1.00
      C507          C  0.1130269  0.1170959  0.0815810    0.00000       Uiso       1.00
      C508          C  0.0835899  0.1457790  0.1129223    0.00000       Uiso       1.00
      C509          C  0.0733382  0.1205624  0.1029301    0.00000       Uiso       1.00
      C510          C  0.0877820  0.1055633  0.0867836    0.00000       Uiso       1.00
      H223          H  0.1046767  0.1003668  0.0415330    0.00000       Uiso       1.00
      H224          H  0.0481334  0.0844909  0.0661070    0.00000       Uiso       1.00
      C511          C  0.1074373  0.0595158  0.1087003    0.00000       Uiso       1.00
      C512          C  0.0916917  0.0729431  0.1234447    0.00000       Uiso       1.00
      C513          C  0.0815734  0.0775087  0.1130284    0.00000       Uiso       1.00
      C514          C  0.1129362  0.0507523  0.0835921    0.00000       Uiso       1.00
      C515          C  0.1029453  0.0557245  0.0733384    0.00000       Uiso       1.00
      C516          C  0.0867856  0.0690072  0.0877825    0.00000       Uiso       1.00
      H225          H  0.0415347  0.0458551  0.1046878    0.00000       Uiso       1.00
      H226          H  0.0660925  0.0297552  0.0481393    0.00000       Uiso       1.00
      C517          C  0.9977375  0.0469219  0.0948522    0.00000       Uiso       1.00
      C518          C  0.0085850  0.0414291  0.1036194    0.00000       Uiso       1.00
      C519          C  0.0338031  0.0514225  0.0986463    0.00000       Uiso       1.00
      C520          C  0.0121650  0.0626646  0.0814216    0.00000       Uiso       1.00
      C521          C  0.0372655  0.0727868  0.0768568    0.00000       Uiso       1.00
      C522          C  0.0488003  0.0675784  0.0853591    0.00000       Uiso       1.00
      H227          H  0.0698712  0.0882613  0.1246093    0.00000       Uiso       1.00
      H228          H  0.0539974  0.1128347  0.1084999    0.00000       Uiso       1.00
      C523          C  0.1287404  0.0374339  0.0690852    0.00000       Uiso       1.00
      C524          C  0.1389453  0.0329142  0.0793121    0.00000       Uiso       1.00
      C525          C  0.0866215  0.0819211  0.1484345    0.00000       Uiso       1.00
      C526          C  0.0970857  0.0777103  0.1586484    0.00000       Uiso       1.00
      C527          C  0.1169323  0.0852843  0.9939752    0.00000       Uiso       1.00
      C528          C  0.1214536  0.0750613  0.9690232    0.00000       Uiso       1.00
      C529          C  0.0724450  0.0059345  0.0012273    0.00000       Uiso       1.00
      C530          C  0.0766616  0.9957235  0.9763358    0.00000       Uiso       1.00
      C531          C  0.0012218  0.0677324  0.0724423    0.00000       Uiso       1.00
      C532          C  0.9763318  0.0572642  0.0766552    0.00000       Uiso       1.00
      C533          C  0.1484312  0.1531382  0.0866391    0.00000       Uiso       1.00
      C534          C  0.1586417  0.1780286  0.0971039    0.00000       Uiso       1.00
      H229          H  0.1601385  0.1424036  0.0746635    0.00000       Uiso       1.00
      H230          H  0.1779492  0.1858604  0.0929064    0.00000       Uiso       1.00
      H231          H  0.0928808  0.0849831  0.1779569    0.00000       Uiso       1.00
      H232          H  0.0746382  0.0923788  0.1601419    0.00000       Uiso       1.00
      H233          H  0.1332426  0.0304911  0.0497409    0.00000       Uiso       1.00
      H234          H  0.1510195  0.0225675  0.0676009    0.00000       Uiso       1.00
      H235          H  0.0693938  0.9764156  0.9684992    0.00000       Uiso       1.00
      H236          H  0.0619865  0.9942242  0.0119581    0.00000       Uiso       1.00
      H237          H  0.1238742  0.1046262  0.0018732    0.00000       Uiso       1.00
      H238          H  0.1318005  0.0867691  0.9583093    0.00000       Uiso       1.00
      H239          H  0.9684990  0.0614663  0.0693834    0.00000       Uiso       1.00
      H240          H  0.0119551  0.0797174  0.0619862    0.00000       Uiso       1.00
      C535          C  0.6344984  0.4531455  0.6146901    0.00000       Uiso       1.00
      C536          C  0.6549408  0.4519138  0.6136085    0.00000       Uiso       1.00
      C537          C  0.6745612  0.4495198  0.5922489    0.00000       Uiso       1.00
      C538          C  0.6953517  0.4495307  0.5918218    0.00000       Uiso       1.00
      C539          C  0.6975324  0.4533005  0.6130963    0.00000       Uiso       1.00
      C540          C  0.6776681  0.4560407  0.6345031    0.00000       Uiso       1.00
      C541          C  0.6557422  0.4536837  0.6348306    0.00000       Uiso       1.00
       O97          O  0.6312181  0.4526291  0.5958609    0.00000       Uiso       1.00
      H241          H  0.6736870  0.4476167  0.5758495    0.00000       Uiso       1.00
      H242          H  0.7096606  0.4468234  0.5747178    0.00000       Uiso       1.00
      H243          H  0.6797295  0.4615623  0.6513424    0.00000       Uiso       1.00
      C542          C  0.6146835  0.4530820  0.7811114    0.00000       Uiso       1.00
      C543          C  0.6135991  0.4518358  0.7605127    0.00000       Uiso       1.00
      C544          C  0.5922440  0.4494533  0.7598573    0.00000       Uiso       1.00
      C545          C  0.5918229  0.4494711  0.7395052    0.00000       Uiso       1.00
      C546          C  0.6130996  0.4532425  0.7198225    0.00000       Uiso       1.00
      C547          C  0.6344990  0.4559593  0.7210186    0.00000       Uiso       1.00
      C548          C  0.6348186  0.4535925  0.7402582    0.00000       Uiso       1.00
       O98          O  0.5958603  0.4525979  0.8027135    0.00000       Uiso       1.00
      H244          H  0.5758455  0.4475659  0.7752295    0.00000       Uiso       1.00
      H245          H  0.5747215  0.4467753  0.7395968    0.00000       Uiso       1.00
      H246          H  0.6513428  0.4614792  0.7076473    0.00000       Uiso       1.00
      C549          C  0.7811228  0.4531053  0.6344731    0.00000       Uiso       1.00
      C550          C  0.7605204  0.4518403  0.6548999    0.00000       Uiso       1.00
      C551          C  0.7598617  0.4494246  0.6745090    0.00000       Uiso       1.00
      C552          C  0.7395013  0.4494122  0.6952934    0.00000       Uiso       1.00
      C553          C  0.7198126  0.4531799  0.6974767    0.00000       Uiso       1.00
      C554          C  0.7210106  0.4559288  0.6776152    0.00000       Uiso       1.00
      C555          C  0.7402654  0.4536030  0.6556979    0.00000       Uiso       1.00
       O99          O  0.8027145  0.4525933  0.6312001    0.00000       Uiso       1.00
      H247          H  0.7752430  0.4475348  0.6736308    0.00000       Uiso       1.00
      H248          H  0.7395898  0.4466991  0.7095989    0.00000       Uiso       1.00
      H249          H  0.7076261  0.4614418  0.6796746    0.00000       Uiso       1.00
      C556          C  0.7821014  0.4562203  0.6155753    0.00000       Uiso       1.00
      C557          C  0.7620748  0.4567908  0.6151233    0.00000       Uiso       1.00
      C558          C  0.7629843  0.4593989  0.5954985    0.00000       Uiso       1.00
      C559          C  0.7424773  0.4590140  0.5949869    0.00000       Uiso       1.00
      C560          C  0.7201858  0.4546225  0.6134901    0.00000       Uiso       1.00
      C561          C  0.7195630  0.4514973  0.6328335    0.00000       Uiso       1.00
      C562          C  0.7404757  0.4542929  0.6348941    0.00000       Uiso       1.00
      O100          O  0.8044081  0.4579963  0.5975651    0.00000       Uiso       1.00
      H250          H  0.7797233  0.4618315  0.5805706    0.00000       Uiso       1.00
      H251          H  0.7443537  0.4619915  0.5798606    0.00000       Uiso       1.00
      H252          H  0.7024875  0.4454637  0.6457085    0.00000       Uiso       1.00
      C563          C  0.6357101  0.4561560  0.7820758    0.00000       Uiso       1.00
      C564          C  0.6567519  0.4567046  0.7620412    0.00000       Uiso       1.00
      C565          C  0.6780646  0.4592612  0.7629306    0.00000       Uiso       1.00
      C566          C  0.6986898  0.4588606  0.7424172    0.00000       Uiso       1.00
      C567          C  0.6980923  0.4545096  0.7201362    0.00000       Uiso       1.00
      C568          C  0.6762552  0.4514324  0.7195341    0.00000       Uiso       1.00
      C569          C  0.6560878  0.4542398  0.7404540    0.00000       Uiso       1.00
      O101          O  0.6331891  0.4579245  0.8043790    0.00000       Uiso       1.00
      H253          H  0.6786878  0.4616765  0.7796631    0.00000       Uiso       1.00
      H254          H  0.7149081  0.4618023  0.7442858    0.00000       Uiso       1.00
      H255          H  0.6744103  0.4454166  0.7024686    0.00000       Uiso       1.00
      C570          C  0.6155835  0.4562216  0.6357195    0.00000       Uiso       1.00
      C571          C  0.6151354  0.4567858  0.6567624    0.00000       Uiso       1.00
      C572          C  0.5954865  0.4593351  0.6780702    0.00000       Uiso       1.00
      C573          C  0.5949694  0.4589309  0.6986956    0.00000       Uiso       1.00
      C574          C  0.6135036  0.4545925  0.6981048    0.00000       Uiso       1.00
      C575          C  0.6328771  0.4515328  0.6762721    0.00000       Uiso       1.00
      C576          C  0.6349281  0.4543347  0.6561022    0.00000       Uiso       1.00
      O102          O  0.5975547  0.4579636  0.6331968    0.00000       Uiso       1.00
      H256          H  0.5805445  0.4617407  0.6786839    0.00000       Uiso       1.00
      H257          H  0.5798139  0.4618568  0.7149066    0.00000       Uiso       1.00
      H258          H  0.6457807  0.4455292  0.6744316    0.00000       Uiso       1.00
        B1          B  0.6076915  0.4556946  0.6078249    0.00000       Uiso       1.00
        B2          B  0.6078220  0.4556763  0.8173503    0.00000       Uiso       1.00
        B3          B  0.8173620  0.4557008  0.6076940    0.00000       Uiso       1.00
      C577          C  0.6146839  0.7960396  0.6344981    0.00000       Uiso       1.00
      C578          C  0.6136020  0.8166317  0.6549401    0.00000       Uiso       1.00
      C579          C  0.5922420  0.8172862  0.6745602    0.00000       Uiso       1.00
      C580          C  0.5918145  0.8376383  0.6953502    0.00000       Uiso       1.00
      C581          C  0.6130890  0.8573237  0.6975310    0.00000       Uiso       1.00
      C582          C  0.6344963  0.8561264  0.6776670    0.00000       Uiso       1.00
      C583          C  0.6348240  0.8368853  0.6557416    0.00000       Uiso       1.00
      O103          O  0.5958548  0.7744465  0.6312178    0.00000       Uiso       1.00
      H259          H  0.5758426  0.8019156  0.6736860    0.00000       Uiso       1.00
      H260          H  0.5747103  0.8375502  0.7096589    0.00000       Uiso       1.00
      H261          H  0.6513355  0.8695055  0.6797285    0.00000       Uiso       1.00
      C584          C  0.7811056  0.9427098  0.6146835    0.00000       Uiso       1.00
      C585          C  0.7605069  0.9222729  0.6135991    0.00000       Uiso       1.00
      C586          C  0.7598519  0.9026452  0.5922443    0.00000       Uiso       1.00
      C587          C  0.7394997  0.8818542  0.5918233    0.00000       Uiso       1.00
      C588          C  0.7198167  0.8796766  0.6130997    0.00000       Uiso       1.00
      C589          C  0.7210124  0.8995548  0.6344987    0.00000       Uiso       1.00
      C590          C  0.7402520  0.9214808  0.6348183    0.00000       Uiso       1.00
      O104          O  0.8027080  0.9459731  0.5958607    0.00000       Uiso       1.00
      H262          H  0.7752243  0.9035066  0.5758461    0.00000       Uiso       1.00
      H263          H  0.7395917  0.8675405  0.5747221    0.00000       Uiso       1.00
      H264          H  0.7076410  0.8975073  0.6513424    0.00000       Uiso       1.00
      C591          C  0.6344644  0.9624847  0.7811199    0.00000       Uiso       1.00
      C592          C  0.6548915  0.9635742  0.7605178    0.00000       Uiso       1.00
      C593          C  0.6745006  0.9849405  0.7598591    0.00000       Uiso       1.00
      C594          C  0.6952854  0.9853771  0.7394991    0.00000       Uiso       1.00
      C595          C  0.6974691  0.9641045  0.7198108    0.00000       Uiso       1.00
      C596          C  0.6776075  0.9426920  0.7210088    0.00000       Uiso       1.00
      C597          C  0.6556899  0.9423550  0.7402632    0.00000       Uiso       1.00
      O105          O  0.6311910  0.9813149  0.8027112    0.00000       Uiso       1.00
      H265          H  0.6736225  0.0013328  0.7752401    0.00000       Uiso       1.00
      H266          H  0.7095912  0.0024839  0.7395875    0.00000       Uiso       1.00
      H267          H  0.6796673  0.9258543  0.7076246    0.00000       Uiso       1.00
      C598          C  0.6155665  0.9414503  0.7820985    0.00000       Uiso       1.00
      C599          C  0.6151150  0.9204016  0.7620723    0.00000       Uiso       1.00
      C600          C  0.5954902  0.8990782  0.7629818    0.00000       Uiso       1.00
      C601          C  0.5949790  0.8784450  0.7424752    0.00000       Uiso       1.00
      C602          C  0.6134825  0.8790485  0.7201840    0.00000       Uiso       1.00
      C603          C  0.6328259  0.9008943  0.7195612    0.00000       Uiso       1.00
      C604          C  0.6348861  0.9210716  0.7404736    0.00000       Uiso       1.00
      O106          O  0.5975560  0.9439705  0.8044049    0.00000       Uiso       1.00
      H268          H  0.5805621  0.8984567  0.7797206    0.00000       Uiso       1.00
      H269          H  0.5798527  0.8622176  0.7443516    0.00000       Uiso       1.00
      H270          H  0.6457011  0.9027276  0.7024859    0.00000       Uiso       1.00
      C605          C  0.7820697  0.9616264  0.6357098    0.00000       Uiso       1.00
      C606          C  0.7620347  0.9620846  0.6567512    0.00000       Uiso       1.00
      C607          C  0.7629238  0.9817299  0.6780637    0.00000       Uiso       1.00
      C608          C  0.7424100  0.9822418  0.6986884    0.00000       Uiso       1.00
      C609          C  0.7201290  0.9637144  0.6980910    0.00000       Uiso       1.00
      C610          C  0.7195272  0.9443526  0.6762540    0.00000       Uiso       1.00
      C611          C  0.7404475  0.9422981  0.6560870    0.00000       Uiso       1.00
      O107          O  0.8043730  0.9796402  0.6331888    0.00000       Uiso       1.00
      H271          H  0.7796562  0.9966703  0.6786869    0.00000       Uiso       1.00
      H272          H  0.7442784  0.9973868  0.7149065    0.00000       Uiso       1.00
      H273          H  0.7024617  0.9314581  0.6744092    0.00000       Uiso       1.00
      C612          C  0.6357138  0.7950785  0.6155836    0.00000       Uiso       1.00
      C613          C  0.6567566  0.8151089  0.6151355    0.00000       Uiso       1.00
      C614          C  0.6780649  0.8142191  0.5954871    0.00000       Uiso       1.00
      C615          C  0.6986902  0.8347315  0.5949699    0.00000       Uiso       1.00
      C616          C  0.6980990  0.8570129  0.6135037    0.00000       Uiso       1.00
      C617          C  0.6762660  0.8576130  0.6328768    0.00000       Uiso       1.00
      C618          C  0.6560960  0.8366922  0.6349279    0.00000       Uiso       1.00
      O108          O  0.6331914  0.7727853  0.5975552    0.00000       Uiso       1.00
      H274          H  0.6786789  0.7974854  0.5805452    0.00000       Uiso       1.00
      H275          H  0.7149016  0.8328614  0.5798147    0.00000       Uiso       1.00
      H276          H  0.6744252  0.8746794  0.6457800    0.00000       Uiso       1.00
        B4          B  0.6078193  0.7598190  0.6076918    0.00000       Uiso       1.00
        B5          B  0.8173447  0.9694931  0.6078222    0.00000       Uiso       1.00
        B6          B  0.6076847  0.9693486  0.8173585    0.00000       Uiso       1.00
       Si1         Si  0.5695220  0.3822360  0.1949502    0.00000       Uiso       1.00
        B7          B  0.5407957  0.3365299  0.1868673    0.00000       Uiso       1.00
      O109          O  0.5591226  0.3547481  0.1978499    0.00000       Uiso       1.00
      O110          O  0.5591223  0.3793364  0.1749620    0.00000       Uiso       1.00
        B8          B  0.5407952  0.3903187  0.1860529    0.00000       Uiso       1.00
        B9          B  0.5407952  0.3911326  0.2406561    0.00000       Uiso       1.00
      O111          O  0.5591221  0.4022238  0.2224380    0.00000       Uiso       1.00
      O112          O  0.5213996  0.3412254  0.1882589    0.00000       Uiso       1.00
      O113          O  0.5213991  0.3889267  0.2087526    0.00000       Uiso       1.00
      O114          O  0.5213993  0.3684328  0.2359605    0.00000       Uiso       1.00
       Si2         Si  0.5113150  0.3628334  0.2143520    0.00000       Uiso       1.00
      C619          C  0.6034290  0.3935385  0.1836481    0.00000       Uiso       1.00
      C620          C  0.6124529  0.3963580  0.2018502    0.00000       Uiso       1.00
      C621          C  0.6124531  0.3753367  0.1592419    0.00000       Uiso       1.00
      C622          C  0.6124527  0.4179448  0.1808285    0.00000       Uiso       1.00
      H277          H  0.6324058  0.4030043  0.1956006    0.00000       Uiso       1.00
      H278          H  0.6059727  0.4093901  0.2196456    0.00000       Uiso       1.00
      H279          H  0.6059703  0.3788647  0.2041780    0.00000       Uiso       1.00
      H280          H  0.6059704  0.3730089  0.1459033    0.00000       Uiso       1.00
      H281          H  0.6324059  0.3815866  0.1521851    0.00000       Uiso       1.00
      H282          H  0.6059731  0.3575413  0.1609588    0.00000       Uiso       1.00
      H283          H  0.6059698  0.4312831  0.1983218    0.00000       Uiso       1.00
      H284          H  0.6324056  0.4250018  0.1741825    0.00000       Uiso       1.00
      H285          H  0.6059726  0.4162280  0.1677962    0.00000       Uiso       1.00
      C623          C  0.4773964  0.3515271  0.2256580    0.00000       Uiso       1.00
      C624          C  0.4683626  0.3706265  0.2490605    0.00000       Uiso       1.00
      C625          C  0.4683628  0.3467967  0.2065582    0.00000       Uiso       1.00
      C626          C  0.4683630  0.3281245  0.2303885    0.00000       Uiso       1.00
      H286          H  0.4484094  0.3643875  0.2560933    0.00000       Uiso       1.00
      H287          H  0.4748391  0.3743393  0.2630391    0.00000       Uiso       1.00
      H288          H  0.4748359  0.3877113  0.2459619    0.00000       Uiso       1.00
      H289          H  0.4748364  0.3330868  0.1894735    0.00000       Uiso       1.00
      H290          H  0.4484096  0.3401152  0.2127970    0.00000       Uiso       1.00
      H291          H  0.4748392  0.3635388  0.2028454    0.00000       Uiso       1.00
      H292          H  0.4748364  0.3312230  0.2440986    0.00000       Uiso       1.00
      H293          H  0.4484098  0.3210914  0.2370698    0.00000       Uiso       1.00
      H294          H  0.4748397  0.3141461  0.2136464    0.00000       Uiso       1.00
       Si3         Si  0.1949442  0.3822327  0.5695216    0.00000       Uiso       1.00
       B10          B  0.1868611  0.3911295  0.5407950    0.00000       Uiso       1.00
      O115          O  0.1978436  0.4022207  0.5591219    0.00000       Uiso       1.00
      O116          O  0.1749562  0.3547447  0.5591221    0.00000       Uiso       1.00
       B11          B  0.1860476  0.3365267  0.5407954    0.00000       Uiso       1.00
       B12          B  0.2406509  0.3903160  0.5407954    0.00000       Uiso       1.00
      O117          O  0.2224326  0.3793334  0.5591223    0.00000       Uiso       1.00
      O118          O  0.1882531  0.3684299  0.5213994    0.00000       Uiso       1.00
      O119          O  0.2087476  0.3412226  0.5213998    0.00000       Uiso       1.00
      O120          O  0.2359551  0.3889242  0.5213996    0.00000       Uiso       1.00
       Si4         Si  0.2143468  0.3628309  0.5113153    0.00000       Uiso       1.00
      C627          C  0.1836417  0.3935348  0.6034282    0.00000       Uiso       1.00
      C628          C  0.2018438  0.4179412  0.6124520    0.00000       Uiso       1.00
      C629          C  0.1592351  0.3963540  0.6124518    0.00000       Uiso       1.00
      C630          C  0.1808224  0.3753328  0.6124522    0.00000       Uiso       1.00
      H295          H  0.1955939  0.4249979  0.6324046    0.00000       Uiso       1.00
      H296          H  0.2196395  0.4162246  0.6059721    0.00000       Uiso       1.00
      H297          H  0.2041714  0.4312796  0.6059692    0.00000       Uiso       1.00
      H298          H  0.1458966  0.3788606  0.6059692    0.00000       Uiso       1.00
      H299          H  0.1521781  0.4030000  0.6324045    0.00000       Uiso       1.00
      H300          H  0.1609518  0.4093862  0.6059717    0.00000       Uiso       1.00
      H301          H  0.1983161  0.3730053  0.6059697    0.00000       Uiso       1.00
      H302          H  0.1741762  0.3815825  0.6324049    0.00000       Uiso       1.00
      H303          H  0.1677902  0.3575374  0.6059722    0.00000       Uiso       1.00
      C631          C  0.2256531  0.3515249  0.4773971    0.00000       Uiso       1.00
      C632          C  0.2490561  0.3467948  0.4683638    0.00000       Uiso       1.00
      C633          C  0.2065535  0.3281222  0.4683636    0.00000       Uiso       1.00
      C634          C  0.2303834  0.3706245  0.4683634    0.00000       Uiso       1.00
      H304          H  0.2560892  0.3401136  0.4484108    0.00000       Uiso       1.00
      H305          H  0.2630346  0.3635370  0.4748403    0.00000       Uiso       1.00
      H306          H  0.2459577  0.3330848  0.4748373    0.00000       Uiso       1.00
      H307          H  0.1894684  0.3312205  0.4748369    0.00000       Uiso       1.00
      H308          H  0.2127924  0.3210894  0.4484106    0.00000       Uiso       1.00
      H309          H  0.2028408  0.3141437  0.4748402    0.00000       Uiso       1.00
      H310          H  0.2440934  0.3877093  0.4748369    0.00000       Uiso       1.00
      H311          H  0.2370649  0.3643858  0.4484105    0.00000       Uiso       1.00
      H312          H  0.2136409  0.3743370  0.4748397    0.00000       Uiso       1.00
      C635          C  0.6344953  0.7960397  0.1240376    0.00000       Uiso       1.00
      C636          C  0.6549375  0.8166322  0.1252695    0.00000       Uiso       1.00
      C637          C  0.6745579  0.8172869  0.1276639    0.00000       Uiso       1.00
      C638          C  0.6953481  0.8376392  0.1276532    0.00000       Uiso       1.00
      C639          C  0.6975288  0.8573245  0.1238832    0.00000       Uiso       1.00
      C640          C  0.6776644  0.8561268  0.1211427    0.00000       Uiso       1.00
      C641          C  0.6557388  0.8368855  0.1234994    0.00000       Uiso       1.00
      O121          O  0.6312152  0.7744468  0.1245542    0.00000       Uiso       1.00
      H313          H  0.6736839  0.8019165  0.1295671    0.00000       Uiso       1.00
      H314          H  0.7096571  0.8375514  0.1303608    0.00000       Uiso       1.00
      H315          H  0.6797257  0.8695056  0.1156209    0.00000       Uiso       1.00
      C642          C  0.6146790  0.9427083  0.1240995    0.00000       Uiso       1.00
      C643          C  0.6135948  0.9222716  0.1253459    0.00000       Uiso       1.00
      C644          C  0.5922397  0.9026437  0.1277282    0.00000       Uiso       1.00
      C645          C  0.5918189  0.8818529  0.1277106    0.00000       Uiso       1.00
      C646          C  0.6130958  0.8796757  0.1239395    0.00000       Uiso       1.00
      C647          C  0.6344949  0.8995541  0.1212229    0.00000       Uiso       1.00
      C648          C  0.6348143  0.9214799  0.1235895    0.00000       Uiso       1.00
      O122          O  0.5958558  0.9459713  0.1245831    0.00000       Uiso       1.00
      H316          H  0.5758413  0.9035048  0.1296153    0.00000       Uiso       1.00
      H317          H  0.5747176  0.8675389  0.1304061    0.00000       Uiso       1.00
      H318          H  0.6513388  0.8975067  0.1157032    0.00000       Uiso       1.00
      C649          C  0.7811182  0.9624860  0.1240790    0.00000       Uiso       1.00
      C650          C  0.7605157  0.9635752  0.1253435    0.00000       Uiso       1.00
      C651          C  0.7598568  0.9849412  0.1277591    0.00000       Uiso       1.00
      C652          C  0.7394964  0.9853776  0.1277711    0.00000       Uiso       1.00
      C653          C  0.7198080  0.9641048  0.1240033    0.00000       Uiso       1.00
      C654          C  0.7210062  0.9426924  0.1212545    0.00000       Uiso       1.00
      C655          C  0.7402610  0.9423558  0.1235807    0.00000       Uiso       1.00
      O123          O  0.8027097  0.9813164  0.1245911    0.00000       Uiso       1.00
      H319          H  0.7752383  0.0013337  0.1296491    0.00000       Uiso       1.00
      H320          H  0.7395851  0.0024842  0.1304841    0.00000       Uiso       1.00
      H321          H  0.7076218  0.9258545  0.1157414    0.00000       Uiso       1.00
      C656          C  0.7820970  0.9414518  0.1209641    0.00000       Uiso       1.00
      C657          C  0.7620706  0.9204029  0.1203934    0.00000       Uiso       1.00
      C658          C  0.7629803  0.8990798  0.1177855    0.00000       Uiso       1.00
      C659          C  0.7424735  0.8784463  0.1181703    0.00000       Uiso       1.00
      C660          C  0.7201819  0.8790494  0.1225614    0.00000       Uiso       1.00
      C661          C  0.7195588  0.9008951  0.1256865    0.00000       Uiso       1.00
      C662          C  0.7404715  0.9210725  0.1228909    0.00000       Uiso       1.00
      O124          O  0.8044037  0.9439723  0.1191885    0.00000       Uiso       1.00
      H322          H  0.7797194  0.8984585  0.1153533    0.00000       Uiso       1.00
      H323          H  0.7443501  0.8622191  0.1151929    0.00000       Uiso       1.00
      H324          H  0.7024834  0.9027281  0.1317197    0.00000       Uiso       1.00
      C663          C  0.6357054  0.9616250  0.1210256    0.00000       Uiso       1.00
      C664          C  0.6567472  0.9620836  0.1204774    0.00000       Uiso       1.00
      C665          C  0.6780599  0.9817292  0.1179210    0.00000       Uiso       1.00
      C666          C  0.6986849  0.9822414  0.1183219    0.00000       Uiso       1.00
      C667          C  0.6980877  0.9637142  0.1226731    0.00000       Uiso       1.00
      C668          C  0.6762506  0.9443523  0.1257502    0.00000       Uiso       1.00
      C669          C  0.6560833  0.9422974  0.1229424    0.00000       Uiso       1.00
      O125          O  0.6331843  0.9796386  0.1192568    0.00000       Uiso       1.00
      H325          H  0.6786829  0.9966694  0.1155056    0.00000       Uiso       1.00
      H326          H  0.7149032  0.9973866  0.1153803    0.00000       Uiso       1.00
      H327          H  0.6744059  0.9314579  0.1317661    0.00000       Uiso       1.00
      C670          C  0.6155804  0.7950783  0.1209612    0.00000       Uiso       1.00
      C671          C  0.6151321  0.8151085  0.1203967    0.00000       Uiso       1.00
      C672          C  0.5954833  0.8142183  0.1178471    0.00000       Uiso       1.00
      C673          C  0.5949660  0.8347306  0.1182511    0.00000       Uiso       1.00
      C674          C  0.6134999  0.8570121  0.1225897    0.00000       Uiso       1.00
      C675          C  0.6328734  0.8576126  0.1256498    0.00000       Uiso       1.00
      C676          C  0.6349247  0.8366920  0.1228481    0.00000       Uiso       1.00
      O126          O  0.5975519  0.7727850  0.1192190    0.00000       Uiso       1.00
      H328          H  0.5805414  0.7974845  0.1154414    0.00000       Uiso       1.00
      H329          H  0.5798105  0.8328602  0.1153249    0.00000       Uiso       1.00
      H330          H  0.6457767  0.8746791  0.1316535    0.00000       Uiso       1.00
       B13          B  0.6076887  0.7598189  0.1214884    0.00000       Uiso       1.00
       B14          B  0.6078173  0.9694911  0.1215047    0.00000       Uiso       1.00
       B15          B  0.8173574  0.9693506  0.1214840    0.00000       Uiso       1.00
       Si5         Si  0.1949439  0.3822325  0.1949470    0.00000       Uiso       1.00
       B16          B  0.1868612  0.3365265  0.1860505    0.00000       Uiso       1.00
      O127          O  0.1978437  0.3547448  0.1749592    0.00000       Uiso       1.00
      O128          O  0.1749556  0.3793328  0.2224349    0.00000       Uiso       1.00
       B17          B  0.1860468  0.3903154  0.2406532    0.00000       Uiso       1.00
       B18          B  0.2406505  0.3911297  0.1868643    0.00000       Uiso       1.00
      O129          O  0.2224320  0.4022207  0.1978466    0.00000       Uiso       1.00
      O130          O  0.1882530  0.3412222  0.2087502    0.00000       Uiso       1.00
      O131          O  0.2087468  0.3889238  0.2359577    0.00000       Uiso       1.00
      O132          O  0.2359549  0.3684301  0.1882563    0.00000       Uiso       1.00
       Si6         Si  0.2143464  0.3628307  0.2143496    0.00000       Uiso       1.00
      C677          C  0.1836414  0.3935346  0.1836445    0.00000       Uiso       1.00
      C678          C  0.2018436  0.3963542  0.1592382    0.00000       Uiso       1.00
      C679          C  0.1592349  0.3753325  0.1808250    0.00000       Uiso       1.00
      C680          C  0.1808217  0.4179408  0.2018464    0.00000       Uiso       1.00
      H331          H  0.1955937  0.4030003  0.1521813    0.00000       Uiso       1.00
      H332          H  0.2196392  0.4093865  0.1609551    0.00000       Uiso       1.00
      H333          H  0.2041715  0.3788610  0.1458999    0.00000       Uiso       1.00
      H334          H  0.1458963  0.3730047  0.1983184    0.00000       Uiso       1.00
      H335          H  0.1521779  0.3815822  0.1741788    0.00000       Uiso       1.00
      H336          H  0.1609519  0.3575372  0.1677929    0.00000       Uiso       1.00
      H337          H  0.1983152  0.4312794  0.2041741    0.00000       Uiso       1.00
      H338          H  0.1741754  0.4249975  0.1955965    0.00000       Uiso       1.00
      H339          H  0.1677893  0.4162239  0.2196418    0.00000       Uiso       1.00
      C681          C  0.2256528  0.3515247  0.2256559    0.00000       Uiso       1.00
      C682          C  0.2490556  0.3706244  0.2303864    0.00000       Uiso       1.00
      C683          C  0.2065530  0.3467942  0.2490585    0.00000       Uiso       1.00
      C684          C  0.2303835  0.3281222  0.2065565    0.00000       Uiso       1.00
      H340          H  0.2560886  0.3643857  0.2370678    0.00000       Uiso       1.00
      H341          H  0.2630342  0.3743373  0.2136442    0.00000       Uiso       1.00
      H342          H  0.2459569  0.3877092  0.2440962    0.00000       Uiso       1.00
      H343          H  0.1894680  0.3330841  0.2459600    0.00000       Uiso       1.00
      H344          H  0.2127919  0.3401129  0.2560915    0.00000       Uiso       1.00
      H345          H  0.2028400  0.3635362  0.2630369    0.00000       Uiso       1.00
      H346          H  0.2440935  0.3312208  0.1894717    0.00000       Uiso       1.00
      H347          H  0.2370649  0.3210894  0.2127954    0.00000       Uiso       1.00
      H348          H  0.2136411  0.3141436  0.2028437    0.00000       Uiso       1.00
      C685          C  0.1240391  0.7960441  0.6146913    0.00000       Uiso       1.00
      C686          C  0.1252708  0.8166363  0.6136095    0.00000       Uiso       1.00
      C687          C  0.1276650  0.8172910  0.5922497    0.00000       Uiso       1.00
      C688          C  0.1276541  0.8376430  0.5918222    0.00000       Uiso       1.00
      C689          C  0.1238841  0.8573283  0.6130965    0.00000       Uiso       1.00
      C690          C  0.1211437  0.8561308  0.6345035    0.00000       Uiso       1.00
      C691          C  0.1235007  0.8368897  0.6348313    0.00000       Uiso       1.00
      O133          O  0.1245556  0.7744513  0.5958624    0.00000       Uiso       1.00
      H349          H  0.1295682  0.8019206  0.5758504    0.00000       Uiso       1.00
      H350          H  0.1303616  0.8375552  0.5747181    0.00000       Uiso       1.00
      H351          H  0.1156218  0.8695096  0.6513426    0.00000       Uiso       1.00
      C692          C  0.1241011  0.9427129  0.7811116    0.00000       Uiso       1.00
      C693          C  0.1253475  0.9222762  0.7605131    0.00000       Uiso       1.00
      C694          C  0.1277300  0.9026485  0.7598581    0.00000       Uiso       1.00
      C695          C  0.1277124  0.8818577  0.7395061    0.00000       Uiso       1.00
      C696          C  0.1239411  0.8796803  0.7198233    0.00000       Uiso       1.00
      C697          C  0.1212243  0.8995584  0.7210190    0.00000       Uiso       1.00
      C698          C  0.1235909  0.9214843  0.7402584    0.00000       Uiso       1.00
      O134          O  0.1245849  0.9459759  0.8027138    0.00000       Uiso       1.00
      H352          H  0.1296173  0.9035098  0.7752303    0.00000       Uiso       1.00
      H353          H  0.1304082  0.8675439  0.7395980    0.00000       Uiso       1.00
      H354          H  0.1157044  0.8975109  0.7076475    0.00000       Uiso       1.00
      C699          C  0.1240791  0.9624891  0.6344717    0.00000       Uiso       1.00
      C700          C  0.1253438  0.9635785  0.6548986    0.00000       Uiso       1.00
      C701          C  0.1277594  0.9849445  0.6745076    0.00000       Uiso       1.00
      C702          C  0.1277716  0.9853811  0.6952921    0.00000       Uiso       1.00
      C703          C  0.1240039  0.9641084  0.6974759    0.00000       Uiso       1.00
      C704          C  0.1212551  0.9426960  0.6776144    0.00000       Uiso       1.00
      C705          C  0.1235812  0.9423592  0.6556970    0.00000       Uiso       1.00
      O135          O  0.1245910  0.9813193  0.6311983    0.00000       Uiso       1.00
      H355          H  0.1296496  0.0013369  0.6736291    0.00000       Uiso       1.00
      H356          H  0.1304850  0.0024877  0.7095975    0.00000       Uiso       1.00
      H357          H  0.1157421  0.9258582  0.6796741    0.00000       Uiso       1.00
      C706          C  0.1209642  0.9414548  0.6155739    0.00000       Uiso       1.00
      C707          C  0.1203936  0.9204062  0.6151224    0.00000       Uiso       1.00
      C708          C  0.1177857  0.8990830  0.5954977    0.00000       Uiso       1.00
      C709          C  0.1181707  0.8784497  0.5949866    0.00000       Uiso       1.00
      C710          C  0.1225620  0.8790530  0.6134899    0.00000       Uiso       1.00
      C711          C  0.1256872  0.9008988  0.6328332    0.00000       Uiso       1.00
      C712          C  0.1228914  0.9210760  0.6348934    0.00000       Uiso       1.00
      O136          O  0.1191883  0.9439752  0.5975635    0.00000       Uiso       1.00
      H358          H  0.1153533  0.8984616  0.5805698    0.00000       Uiso       1.00
      H359          H  0.1151932  0.8622224  0.5798604    0.00000       Uiso       1.00
      H360          H  0.1317206  0.9027320  0.6457083    0.00000       Uiso       1.00
      C713          C  0.1210270  0.9616295  0.7820756    0.00000       Uiso       1.00
      C714          C  0.1204785  0.9620878  0.7620407    0.00000       Uiso       1.00
      C715          C  0.1179220  0.9817331  0.7629299    0.00000       Uiso       1.00
      C716          C  0.1183227  0.9822452  0.7424163    0.00000       Uiso       1.00
      C717          C  0.1226740  0.9637180  0.7201354    0.00000       Uiso       1.00
      C718          C  0.1257512  0.9443563  0.7195337    0.00000       Uiso       1.00
      C719          C  0.1229436  0.9423016  0.7404538    0.00000       Uiso       1.00
      O137          O  0.1192582  0.9796429  0.8043787    0.00000       Uiso       1.00
      H361          H  0.1155065  0.9966733  0.7796622    0.00000       Uiso       1.00
      H362          H  0.1153809  0.9973901  0.7442846    0.00000       Uiso       1.00
      H363          H  0.1317672  0.9314620  0.7024685    0.00000       Uiso       1.00
      C720          C  0.1209628  0.7950829  0.6357210    0.00000       Uiso       1.00
      C721          C  0.1203983  0.8151131  0.6567637    0.00000       Uiso       1.00
      C722          C  0.1178489  0.8142231  0.6780717    0.00000       Uiso       1.00
      C723          C  0.1182529  0.8347352  0.6986969    0.00000       Uiso       1.00
      C724          C  0.1225913  0.8570166  0.6981058    0.00000       Uiso       1.00
      C725          C  0.1256512  0.8576169  0.6762729    0.00000       Uiso       1.00
      C726          C  0.1228495  0.8366964  0.6561031    0.00000       Uiso       1.00
      O138          O  0.1192207  0.7727897  0.6331986    0.00000       Uiso       1.00
      H364          H  0.1154432  0.7974893  0.6786857    0.00000       Uiso       1.00
      H365          H  0.1153268  0.8328649  0.7149081    0.00000       Uiso       1.00
      H366          H  0.1316549  0.8746834  0.6744321    0.00000       Uiso       1.00
       B19          B  0.1214900  0.7598235  0.6078268    0.00000       Uiso       1.00
       B20          B  0.1215063  0.9694957  0.8173503    0.00000       Uiso       1.00
       B21          B  0.1214838  0.9693533  0.6076922    0.00000       Uiso       1.00
       Si7         Si  0.1949477  0.0076616  0.1949502    0.00000       Uiso       1.00
       B22          B  0.1860504  0.0363877  0.1868669    0.00000       Uiso       1.00
      O139          O  0.1749593  0.0180609  0.1978495    0.00000       Uiso       1.00
      O140          O  0.2224359  0.0180613  0.1749622    0.00000       Uiso       1.00
       B23          B  0.2406541  0.0363882  0.1860534    0.00000       Uiso       1.00
       B24          B  0.1868644  0.0363877  0.2406562    0.00000       Uiso       1.00
      O141          O  0.1978472  0.0180611  0.2224382    0.00000       Uiso       1.00
      O142          O  0.2087503  0.0557836  0.1882587    0.00000       Uiso       1.00
      O143          O  0.2359582  0.0557839  0.2087530    0.00000       Uiso       1.00
      O144          O  0.1882560  0.0557834  0.2359603    0.00000       Uiso       1.00
       Si8         Si  0.2143495  0.0658679  0.2143520    0.00000       Uiso       1.00
      C727          C  0.1836452  0.9737552  0.1836481    0.00000       Uiso       1.00
      C728          C  0.1592387  0.9647312  0.2018501    0.00000       Uiso       1.00
      C729          C  0.1808258  0.9647315  0.1592417    0.00000       Uiso       1.00
      C730          C  0.2018476  0.9647316  0.1808289    0.00000       Uiso       1.00
      H367          H  0.1521819  0.9447786  0.1956004    0.00000       Uiso       1.00
      H368          H  0.1609554  0.9712113  0.2196455    0.00000       Uiso       1.00
      H369          H  0.1459000  0.9712138  0.2041776    0.00000       Uiso       1.00
      H370          H  0.1983194  0.9712142  0.1459033    0.00000       Uiso       1.00
      H371          H  0.1741798  0.9447787  0.1521850    0.00000       Uiso       1.00
      H372          H  0.1677934  0.9712114  0.1609583    0.00000       Uiso       1.00
      H373          H  0.2041752  0.9712143  0.1983223    0.00000       Uiso       1.00
      H374          H  0.1955979  0.9447790  0.1741829    0.00000       Uiso       1.00
      H375          H  0.2196432  0.9712118  0.1677967    0.00000       Uiso       1.00
      C731          C  0.2256555  0.0997861  0.2256580    0.00000       Uiso       1.00
      C732          C  0.2303859  0.1088196  0.2490607    0.00000       Uiso       1.00
      C733          C  0.2490584  0.1088198  0.2065584    0.00000       Uiso       1.00
      C734          C  0.2065555  0.1088194  0.2303882    0.00000       Uiso       1.00
      H376          H  0.2370671  0.1287726  0.2560935    0.00000       Uiso       1.00
      H377          H  0.2136435  0.1023430  0.2630391    0.00000       Uiso       1.00
      H378          H  0.2440961  0.1023464  0.2459624    0.00000       Uiso       1.00
      H379          H  0.2459598  0.1023464  0.1894736    0.00000       Uiso       1.00
      H380          H  0.2560911  0.1287728  0.2127971    0.00000       Uiso       1.00
      H381          H  0.2630371  0.1023435  0.2028459    0.00000       Uiso       1.00
      H382          H  0.1894705  0.1023459  0.2440981    0.00000       Uiso       1.00
      H383          H  0.2127942  0.1287724  0.2370694    0.00000       Uiso       1.00
      H384          H  0.2028428  0.1023430  0.2136459    0.00000       Uiso       1.00
