data_101
_audit_creation_date              0000-00-00
_audit_creation_method            'LanYouShi'
_symmetry_space_group_name_H-M    'P1'
_cell_length_a                    55.6654015
_cell_length_b                    78.7228012
_cell_length_c                    55.6655006
_cell_angle_alpha                 90.0000000
_cell_angle_beta                  90.0000000
_cell_angle_gamma                 135.0000000
loop_
_atom_site_label
_atom_site_type_symbol
_atom_site_fract_x
_atom_site_fract_y
_atom_site_fract_z
_atom_site_U_iso_or_equiv
_atom_site_adp_type
_atom_site_occupancy
        C1          C  0.7386431  0.6193303  0.6650653    0.00000       Uiso       1.00
        C2          C  0.7263111  0.5978602  0.6557912    0.00000       Uiso       1.00
        C3          C  0.7013085  0.5853593  0.6374691    0.00000       Uiso       1.00
        C4          C  0.7263111  0.6284676  0.6557887    0.00000       Uiso       1.00
        C5          C  0.7015119  0.6161221  0.6374030    0.00000       Uiso       1.00
        C6          C  0.6882543  0.5941862  0.6278660    0.00000       Uiso       1.00
        H1          H  0.7361526  0.6459880  0.6631014    0.00000       Uiso       1.00
        H2          H  0.7361526  0.5901819  0.6631061    0.00000       Uiso       1.00
        C7          C  0.4999960  0.3806736  0.3349458    0.00000       Uiso       1.00
        C8          C  0.5306037  0.4021437  0.3442205    0.00000       Uiso       1.00
        C9          C  0.5307147  0.4145993  0.3626051    0.00000       Uiso       1.00
       C10          C  0.4693888  0.3715363  0.3442212    0.00000       Uiso       1.00
       C11          C  0.4693921  0.3840398  0.3625425    0.00000       Uiso       1.00
       C12          C  0.5001018  0.4059219  0.3721421    0.00000       Uiso       1.00
        H3          H  0.4441898  0.3540158  0.3369080    0.00000       Uiso       1.00
        H4          H  0.5558023  0.4098220  0.3369066    0.00000       Uiso       1.00
       C13          C  0.4999960  0.6193120  0.3349259    0.00000       Uiso       1.00
       C14          C  0.4693889  0.5978429  0.3442024    0.00000       Uiso       1.00
       C15          C  0.4692788  0.5853879  0.3625869    0.00000       Uiso       1.00
       C16          C  0.5306037  0.6284503  0.3442016    0.00000       Uiso       1.00
       C17          C  0.5306019  0.6159472  0.3625219    0.00000       Uiso       1.00
       C18          C  0.4998920  0.5940645  0.3721225    0.00000       Uiso       1.00
        H5          H  0.5558024  0.6459700  0.3368869    0.00000       Uiso       1.00
        H6          H  0.4441898  0.5901638  0.3368884    0.00000       Uiso       1.00
       C19          C  0.2613662  0.3806919  0.6650715    0.00000       Uiso       1.00
       C20          C  0.2736977  0.4021610  0.6557944    0.00000       Uiso       1.00
       C21          C  0.2986990  0.4146596  0.6374715    0.00000       Uiso       1.00
       C22          C  0.2736977  0.3715536  0.6557970    0.00000       Uiso       1.00
       C23          C  0.2984950  0.3838965  0.6374100    0.00000       Uiso       1.00
       C24          C  0.3117515  0.4058311  0.6278703    0.00000       Uiso       1.00
       C25          C  0.5000017  0.5000013  0.4999996    0.00000       Uiso       1.00
        H7          H  0.2638566  0.3540339  0.6631121    0.00000       Uiso       1.00
        H8          H  0.2638566  0.4098401  0.6631075    0.00000       Uiso       1.00
        N1          N  0.6879882  0.5618283  0.6286448    0.00000       Uiso       1.00
        O1          O  0.6666332  0.5507153  0.6130198    0.00000       Uiso       1.00
        O2          O  0.6986675  0.5540848  0.6371963    0.00000       Uiso       1.00
        N2          N  0.3120219  0.4381914  0.6286467    0.00000       Uiso       1.00
        O3          O  0.3333759  0.4493029  0.6130211    0.00000       Uiso       1.00
        O4          O  0.3013458  0.4459369  0.6371987    0.00000       Uiso       1.00
        N3          N  0.4356495  0.3738287  0.3713654    0.00000       Uiso       1.00
        O5          O  0.4347771  0.3840706  0.3869894    0.00000       Uiso       1.00
        O6          O  0.4094839  0.3554063  0.3628126    0.00000       Uiso       1.00
        N4          N  0.5643482  0.6261607  0.3713386    0.00000       Uiso       1.00
        O7          O  0.5652270  0.6159217  0.3869619    0.00000       Uiso       1.00
        O8          O  0.5905102  0.6445823  0.3627816    0.00000       Uiso       1.00
        N5          N  0.6897429  0.6271616  0.6277209    0.00000       Uiso       1.00
        O9          O  0.6685570  0.6170945  0.6119869    0.00000       Uiso       1.00
       O10          O  0.7014951  0.6460731  0.6356952    0.00000       Uiso       1.00
        N6          N  0.3102637  0.3728559  0.6277313    0.00000       Uiso       1.00
       O11          O  0.3314480  0.3829207  0.6119962    0.00000       Uiso       1.00
       O12          O  0.2985128  0.3539458  0.6357090    0.00000       Uiso       1.00
        N7          N  0.5645643  0.4374094  0.3722833    0.00000       Uiso       1.00
       O13          O  0.5656186  0.4485301  0.3880165    0.00000       Uiso       1.00
       O14          O  0.5906338  0.4445676  0.3643076    0.00000       Uiso       1.00
        N8          N  0.4354308  0.5625762  0.3722651    0.00000       Uiso       1.00
       O15          O  0.4343794  0.5514569  0.3879982    0.00000       Uiso       1.00
       O16          O  0.4093596  0.5554155  0.3642894    0.00000       Uiso       1.00
       C26          C  0.6610413  0.5806890  0.6082873    0.00000       Uiso       1.00
       C27          C  0.6592754  0.5668177  0.5906693    0.00000       Uiso       1.00
       C28          C  0.6338869  0.5541543  0.5725711    0.00000       Uiso       1.00
       C29          C  0.6364460  0.5815256  0.6070300    0.00000       Uiso       1.00
       C30          C  0.6111490  0.5691320  0.5889025    0.00000       Uiso       1.00
       C31          C  0.6097906  0.5553554  0.5716332    0.00000       Uiso       1.00
        H9          H  0.6364978  0.5915080  0.6204228    0.00000       Uiso       1.00
       H10          H  0.6779556  0.5660737  0.5907798    0.00000       Uiso       1.00
       C32          C  0.5003253  0.4196403  0.3917179    0.00000       Uiso       1.00
       C33          C  0.5265871  0.4450728  0.3929653    0.00000       Uiso       1.00
       C34          C  0.5271011  0.4579785  0.4110919    0.00000       Uiso       1.00
       C35          C  0.4743616  0.4075372  0.4093448    0.00000       Uiso       1.00
       C36          C  0.4744282  0.4202644  0.4274410    0.00000       Uiso       1.00
       C37          C  0.5009174  0.4455613  0.4283695    0.00000       Uiso       1.00
       H11          H  0.4541980  0.3881133  0.4092472    0.00000       Uiso       1.00
       H12          H  0.5464929  0.4550027  0.3795648    0.00000       Uiso       1.00
       C38          C  0.4996676  0.5803452  0.3916990    0.00000       Uiso       1.00
       C39          C  0.4733955  0.5549123  0.3929544    0.00000       Uiso       1.00
       C40          C  0.4728806  0.5420061  0.4110849    0.00000       Uiso       1.00
       C41          C  0.5256402  0.5924494  0.4093187    0.00000       Uiso       1.00
       C42          C  0.5255752  0.5797240  0.4274158    0.00000       Uiso       1.00
       C43          C  0.4990776  0.5544270  0.4283562    0.00000       Uiso       1.00
       H13          H  0.5458094  0.6118718  0.4092151    0.00000       Uiso       1.00
       H14          H  0.4534841  0.5449859  0.3795546    0.00000       Uiso       1.00
       C44          C  0.3389633  0.4193257  0.6082914    0.00000       Uiso       1.00
       C45          C  0.3407209  0.4331874  0.5906654    0.00000       Uiso       1.00
       C46          C  0.3661103  0.4458507  0.5725685    0.00000       Uiso       1.00
       C47          C  0.3635647  0.4184953  0.6070412    0.00000       Uiso       1.00
       C48          C  0.3888602  0.4308863  0.5889128    0.00000       Uiso       1.00
       C49          C  0.3902127  0.4446557  0.5716378    0.00000       Uiso       1.00
       H15          H  0.3635164  0.4085184  0.6204399    0.00000       Uiso       1.00
       H16          H  0.3220298  0.4339208  0.5907709    0.00000       Uiso       1.00
       C50          C  0.3679393  0.4598026  0.5553356    0.00000       Uiso       1.00
       C51          C  0.3934724  0.4725771  0.5376381    0.00000       Uiso       1.00
       C52          C  0.4483567  0.4081406  0.4446785    0.00000       Uiso       1.00
       C53          C  0.4483422  0.4208989  0.4623768    0.00000       Uiso       1.00
        N9          N  0.3946253  0.4875390  0.5197135    0.00000       Uiso       1.00
       O17          O  0.4163767  0.4986576  0.5043560    0.00000       Uiso       1.00
       O18          O  0.3737999  0.4884103  0.5207059    0.00000       Uiso       1.00
       N10          N  0.3425012  0.4614381  0.5557672    0.00000       Uiso       1.00
       O19          O  0.3441106  0.4734477  0.5409301    0.00000       Uiso       1.00
       O20          O  0.3205078  0.4507400  0.5709481    0.00000       Uiso       1.00
       N11          N  0.4195713  0.4070850  0.4803017    0.00000       Uiso       1.00
       O21          O  0.4190813  0.4177140  0.4956616    0.00000       Uiso       1.00
       O22          O  0.3970066  0.3853883  0.4793065    0.00000       Uiso       1.00
       N12          N  0.4196447  0.3810671  0.4442534    0.00000       Uiso       1.00
       O23          O  0.3972425  0.3706716  0.4590961    0.00000       Uiso       1.00
       O24          O  0.4190368  0.3697674  0.4290715    0.00000       Uiso       1.00
       C54          C  0.5841272  0.5426108  0.5535096    0.00000       Uiso       1.00
       C55          C  0.5823215  0.5284522  0.5365232    0.00000       Uiso       1.00
       C56          C  0.5561712  0.5152642  0.5189854    0.00000       Uiso       1.00
       C57          C  0.5599951  0.5437497  0.5526443    0.00000       Uiso       1.00
       C58          C  0.5342949  0.5307706  0.5348579    0.00000       Uiso       1.00
       C59          C  0.5316706  0.5162681  0.5175007    0.00000       Uiso       1.00
       H17          H  0.5473999  0.5159284  0.4652251    0.00000       Uiso       1.00
       H18          H  0.5472400  0.5509691  0.4929261    0.00000       Uiso       1.00
       C60          C  0.5010934  0.4584803  0.4464931    0.00000       Uiso       1.00
       C61          C  0.5274972  0.4837528  0.4473505    0.00000       Uiso       1.00
       C62          C  0.5272427  0.4964762  0.4651376    0.00000       Uiso       1.00
       C63          C  0.4745916  0.4461278  0.4634897    0.00000       Uiso       1.00
       C64          C  0.4743672  0.4590925  0.4810258    0.00000       Uiso       1.00
       C65          C  0.5008670  0.4845984  0.4824999    0.00000       Uiso       1.00
       H19          H  0.5547032  0.5037371  0.5070644    0.00000       Uiso       1.00
       H20          H  0.4844332  0.4685091  0.5347592    0.00000       Uiso       1.00
       C66          C  0.4989071  0.5415136  0.4464830    0.00000       Uiso       1.00
       C67          C  0.4724942  0.5162418  0.4473512    0.00000       Uiso       1.00
       C68          C  0.4727527  0.5035223  0.4651408    0.00000       Uiso       1.00
       C69          C  0.5254219  0.5538698  0.4634702    0.00000       Uiso       1.00
       C70          C  0.5256500  0.5409085  0.4810085    0.00000       Uiso       1.00
       C71          C  0.4991385  0.5154031  0.4824957    0.00000       Uiso       1.00
       H21          H  0.4452944  0.4962608  0.5070506    0.00000       Uiso       1.00
       H22          H  0.5155561  0.5314834  0.5347633    0.00000       Uiso       1.00
       C72          C  0.4158750  0.4573981  0.5535137    0.00000       Uiso       1.00
       C73          C  0.4176769  0.4715528  0.5365207    0.00000       Uiso       1.00
       C74          C  0.4438305  0.4847408  0.5189828    0.00000       Uiso       1.00
       C75          C  0.4400082  0.4562590  0.5526506    0.00000       Uiso       1.00
       C76          C  0.4657062  0.4692335  0.5348608    0.00000       Uiso       1.00
       C77          C  0.4683328  0.4837369  0.5175022    0.00000       Uiso       1.00
       H23          H  0.4525830  0.4840701  0.4652467    0.00000       Uiso       1.00
       H24          H  0.4527878  0.4490329  0.4929554    0.00000       Uiso       1.00
       C78          C  0.5516800  0.5790983  0.4623454    0.00000       Uiso       1.00
       C79          C  0.5516604  0.5918529  0.4446448    0.00000       Uiso       1.00
       C80          C  0.4464531  0.5040710  0.4300953    0.00000       Uiso       1.00
       C81          C  0.4466695  0.5167828  0.4121815    0.00000       Uiso       1.00
       C82          C  0.6065193  0.5274210  0.5376464    0.00000       Uiso       1.00
       C83          C  0.6320521  0.5401947  0.5553449    0.00000       Uiso       1.00
       C84          C  0.5616991  0.5576238  0.5698988    0.00000       Uiso       1.00
       C85          C  0.5869158  0.5701235  0.5878091    0.00000       Uiso       1.00
       C86          C  0.4383073  0.4423899  0.5699100    0.00000       Uiso       1.00
       C87          C  0.4130962  0.4298973  0.5878224    0.00000       Uiso       1.00
       C88          C  0.5535302  0.4959216  0.4300866    0.00000       Uiso       1.00
       C89          C  0.5533095  0.4832037  0.4121768    0.00000       Uiso       1.00
       N13          N  0.5803807  0.6189256  0.4442057    0.00000       Uiso       1.00
       O25          O  0.6027932  0.6293245  0.4590405    0.00000       Uiso       1.00
       O26          O  0.5809851  0.6302214  0.4290204    0.00000       Uiso       1.00
       N14          N  0.5804633  0.5929134  0.4802600    0.00000       Uiso       1.00
       O27          O  0.6030235  0.6146113  0.4792628    0.00000       Uiso       1.00
       O28          O  0.5809696  0.5822884  0.4956123    0.00000       Uiso       1.00
       N15          N  0.4182780  0.5029231  0.3939449    0.00000       Uiso       1.00
       O29          O  0.3957562  0.4812229  0.3949260    0.00000       Uiso       1.00
       O30          O  0.4180466  0.5135149  0.3783512    0.00000       Uiso       1.00
       N16          N  0.4178625  0.4769886  0.4304292    0.00000       Uiso       1.00
       O31          O  0.3955051  0.4665855  0.4155496    0.00000       Uiso       1.00
       O32          O  0.4173080  0.4656895  0.4455742    0.00000       Uiso       1.00
       N17          N  0.4638789  0.4408793  0.5695764    0.00000       Uiso       1.00
       O33          O  0.4623285  0.4289267  0.5844581    0.00000       Uiso       1.00
       O34          O  0.4859191  0.4516195  0.5544288    0.00000       Uiso       1.00
       N18          N  0.4124192  0.4153656  0.6060629    0.00000       Uiso       1.00
       O35          O  0.4332970  0.4145431  0.6050871    0.00000       Uiso       1.00
       O36          O  0.3910020  0.4045443  0.6216552    0.00000       Uiso       1.00
       N19          N  0.5821110  0.5230047  0.4304094    0.00000       Uiso       1.00
       O37          O  0.6044611  0.5334066  0.4155240    0.00000       Uiso       1.00
       O38          O  0.5826651  0.5343058  0.4455513    0.00000       Uiso       1.00
       N20          N  0.5816904  0.4970592  0.3939320    0.00000       Uiso       1.00
       O39          O  0.6042082  0.5187599  0.3949041    0.00000       Uiso       1.00
       O40          O  0.5819176  0.4864635  0.3783406    0.00000       Uiso       1.00
       N21          N  0.6574818  0.5385516  0.5557890    0.00000       Uiso       1.00
       O41          O  0.6558697  0.5265362  0.5409588    0.00000       Uiso       1.00
       O42          O  0.6794710  0.5492492  0.5709729    0.00000       Uiso       1.00
       N22          N  0.6053645  0.5124514  0.5197327    0.00000       Uiso       1.00
       O43          O  0.6261997  0.5115888  0.5207297    0.00000       Uiso       1.00
       O44          O  0.5836062  0.5013185  0.5043818    0.00000       Uiso       1.00
       N23          N  0.5876030  0.5846624  0.6060461    0.00000       Uiso       1.00
       O45          O  0.5667294  0.5854891  0.6050701    0.00000       Uiso       1.00
       O46          O  0.6090242  0.5954856  0.6216356    0.00000       Uiso       1.00
       N24          N  0.5361282  0.5591352  0.5695689    0.00000       Uiso       1.00
       O47          O  0.5376868  0.5710931  0.5844482    0.00000       Uiso       1.00
       O48          O  0.5140804  0.5483902  0.5544268    0.00000       Uiso       1.00
       C90          C  0.9542633  0.6193421  0.8806859    0.00000       Uiso       1.00
       C91          C  0.9726774  0.6284811  0.9021552    0.00000       Uiso       1.00
       C92          C  0.9784978  0.6159796  0.9146563    0.00000       Uiso       1.00
       C93          C  0.9420691  0.5978721  0.8715496    0.00000       Uiso       1.00
       C94          C  0.9480013  0.5854185  0.8838953    0.00000       Uiso       1.00
       C95          C  0.9662184  0.5940977  0.9058304    0.00000       Uiso       1.00
       H25          H  0.9270760  0.5901924  0.8540297    0.00000       Uiso       1.00
       H26          H  0.9828836  0.6460016  0.9098328    0.00000       Uiso       1.00
       C96          C  0.2844020  0.6193554  0.1193344    0.00000       Uiso       1.00
       C97          C  0.2842638  0.6284921  0.0978641    0.00000       Uiso       1.00
       C98          C  0.2535335  0.6161472  0.0854096    0.00000       Uiso       1.00
       C99          C  0.2536571  0.5978863  0.1284732    0.00000       Uiso       1.00
      C100          C  0.2228347  0.5853858  0.1159708    0.00000       Uiso       1.00
      C101          C  0.2220614  0.5942125  0.0940886    0.00000       Uiso       1.00
       H27          H  0.2532928  0.5902085  0.1459939    0.00000       Uiso       1.00
       H28          H  0.3090976  0.6460117  0.0901846    0.00000       Uiso       1.00
      C102          C  0.0457571  0.3807038  0.8807088    0.00000       Uiso       1.00
      C103          C  0.0273442  0.3715672  0.9021786    0.00000       Uiso       1.00
      C104          C  0.0213066  0.3839134  0.9146335    0.00000       Uiso       1.00
      C105          C  0.0579508  0.4021729  0.8715695    0.00000       Uiso       1.00
      C106          C  0.0521337  0.4146754  0.8840724    0.00000       Uiso       1.00
      C107          C  0.0337078  0.4058498  0.9059559    0.00000       Uiso       1.00
       H29          H  0.0729431  0.4098507  0.8540493    0.00000       Uiso       1.00
       H30          H  0.0171383  0.3540475  0.9098585    0.00000       Uiso       1.00
      C108          C  0.7156311  0.3807169  0.1193378    0.00000       Uiso       1.00
      C109          C  0.7157683  0.3715779  0.0978690    0.00000       Uiso       1.00
      C110          C  0.7465928  0.3840793  0.0853692    0.00000       Uiso       1.00
      C111          C  0.7463765  0.4021870  0.1284747    0.00000       Uiso       1.00
      C112          C  0.7772167  0.4146402  0.1161306    0.00000       Uiso       1.00
      C113          C  0.7780761  0.4059606  0.0941963    0.00000       Uiso       1.00
      C114          C  0.0000175  0.5000316  0.0000177    0.00000       Uiso       1.00
       H31          H  0.7467418  0.4098668  0.1459941    0.00000       Uiso       1.00
       H32          H  0.6909341  0.3540574  0.0901910    0.00000       Uiso       1.00
       N25          N  0.9975349  0.6261913  0.9381865    0.00000       Uiso       1.00
       O49          O  0.0029171  0.6159496  0.9492997    0.00000       Uiso       1.00
       O50          O  0.0074067  0.6446148  0.9459292    0.00000       Uiso       1.00
       N26          N  0.7452063  0.3738689  0.0618378    0.00000       Uiso       1.00
       O51          O  0.7710733  0.3841103  0.0507253    0.00000       Uiso       1.00
       O52          O  0.7182316  0.3554471  0.0540935    0.00000       Uiso       1.00
       N27          N  0.1904807  0.5618552  0.1261834    0.00000       Uiso       1.00
       O53          O  0.1637416  0.5507408  0.1159426    0.00000       Uiso       1.00
       O54          O  0.1912913  0.5541129  0.1446060    0.00000       Uiso       1.00
       N28          N  0.0668500  0.4382079  0.8738579    0.00000       Uiso       1.00
       O55          O  0.0623462  0.4493268  0.8840967    0.00000       Uiso       1.00
       O56          O  0.0831459  0.4459471  0.8554357    0.00000       Uiso       1.00
       N29          N  0.9348729  0.5626091  0.8728569    0.00000       Uiso       1.00
       O57          O  0.9394882  0.5514904  0.8829241    0.00000       Uiso       1.00
       O58          O  0.9197378  0.5554489  0.8539459    0.00000       Uiso       1.00
       N30          N  0.8097062  0.4374498  0.1271697    0.00000       Uiso       1.00
       O59          O  0.8365598  0.4485683  0.1171040    0.00000       Uiso       1.00
       O60          O  0.8088895  0.4446103  0.1460796    0.00000       Uiso       1.00
       N31          N  0.2548935  0.6271857  0.0625992    0.00000       Uiso       1.00
       O61          O  0.2290933  0.6171192  0.0514795    0.00000       Uiso       1.00
       O62          O  0.2817805  0.6460965  0.0554398    0.00000       Uiso       1.00
       N32          N  0.0005938  0.3728786  0.9374459    0.00000       Uiso       1.00
       O63          O  0.9949311  0.3829475  0.9485651    0.00000       Uiso       1.00
       O64          O  0.9896598  0.3539683  0.9446074    0.00000       Uiso       1.00
      C115          C  0.9720813  0.5803821  0.9193278    0.00000       Uiso       1.00
      C116          C  0.0018048  0.5924877  0.9331980    0.00000       Uiso       1.00
      C117          C  0.0071782  0.5797629  0.9458616    0.00000       Uiso       1.00
      C118          C  0.9479060  0.5549502  0.9184927    0.00000       Uiso       1.00
      C119          C  0.9531301  0.5420470  0.9308864    0.00000       Uiso       1.00
      C120          C  0.9828187  0.5544654  0.9446619    0.00000       Uiso       1.00
       H33          H  0.9245817  0.5450193  0.9085110    0.00000       Uiso       1.00
       H34          H  0.0211192  0.6119120  0.9339409    0.00000       Uiso       1.00
      C121          C  0.1889897  0.5807174  0.0803714    0.00000       Uiso       1.00
      C122          C  0.1885696  0.5815454  0.0549389    0.00000       Uiso       1.00
      C123          C  0.1580503  0.5691534  0.0420343    0.00000       Uiso       1.00
      C124          C  0.1575032  0.5668580  0.0924757    0.00000       Uiso       1.00
      C125          C  0.1267456  0.5541972  0.0797497    0.00000       Uiso       1.00
      C126          C  0.1270074  0.5553882  0.0544527    0.00000       Uiso       1.00
       H35          H  0.1568627  0.5661194  0.1118996    0.00000       Uiso       1.00
       H36          H  0.2119453  0.5915204  0.0450081    0.00000       Uiso       1.00
      C127          C  0.0276283  0.4193460  0.9196749    0.00000       Uiso       1.00
      C128          C  0.0255356  0.4185082  0.9451078    0.00000       Uiso       1.00
      C129          C  0.0197983  0.4309007  0.9580138    0.00000       Uiso       1.00
      C130          C  0.0238769  0.4332142  0.9075704    0.00000       Uiso       1.00
      C131          C  0.0184421  0.4458759  0.9202955    0.00000       Uiso       1.00
      C132          C  0.0163031  0.4446767  0.9455927    0.00000       Uiso       1.00
       H37          H  0.0247257  0.4339600  0.8881480    0.00000       Uiso       1.00
       H38          H  0.0289507  0.4085234  0.9550344    0.00000       Uiso       1.00
      C133          C  0.8113708  0.4196764  0.0807005    0.00000       Uiso       1.00
      C134          C  0.8168908  0.4075710  0.0668390    0.00000       Uiso       1.00
      C135          C  0.8477126  0.4202959  0.0541745    0.00000       Uiso       1.00
      C136          C  0.8380537  0.4451082  0.0815294    0.00000       Uiso       1.00
      C137          C  0.8690856  0.4580115  0.0691373    0.00000       Uiso       1.00
      C138          C  0.8739416  0.4455933  0.0553681    0.00000       Uiso       1.00
       H39          H  0.8345851  0.4550378  0.0915061    0.00000       Uiso       1.00
       H40          H  0.7973603  0.3881466  0.0661067    0.00000       Uiso       1.00
      C139          C  0.8528208  0.4081717  0.0402229    0.00000       Uiso       1.00
      C140          C  0.8832758  0.4209292  0.0274473    0.00000       Uiso       1.00
      C141          C  0.0955614  0.5402507  0.0918747    0.00000       Uiso       1.00
      C142          C  0.0650894  0.5274777  0.0791175    0.00000       Uiso       1.00
       N33          N  0.8873892  0.4071188  0.0124857    0.00000       Uiso       1.00
       O65          O  0.9133785  0.4177505  0.0013661    0.00000       Uiso       1.00
       O66          O  0.8646994  0.3854221  0.0116155    0.00000       Uiso       1.00
       N34          N  0.8253146  0.3810981  0.0385889    0.00000       Uiso       1.00
       O67          O  0.8297500  0.3706969  0.0265795    0.00000       Uiso       1.00
       O68          O  0.7988394  0.3698038  0.0492880    0.00000       Uiso       1.00
       N35          N  0.0322087  0.5125220  0.0929327    0.00000       Uiso       1.00
       O69          O  0.0057290  0.5014030  0.0823048    0.00000       Uiso       1.00
       O70          O  0.0323377  0.5116553  0.1146294    0.00000       Uiso       1.00
       N36          N  0.0943501  0.5386137  0.1189482    0.00000       Uiso       1.00
       O71          O  0.0675016  0.5266080  0.1293447    0.00000       Uiso       1.00
       O72          O  0.1202247  0.5493057  0.1302470    0.00000       Uiso       1.00
      C143          C  0.9880236  0.5415467  0.9574066    0.00000       Uiso       1.00
      C144          C  0.0173631  0.5539000  0.9715642    0.00000       Uiso       1.00
      C145          C  0.0219388  0.5409378  0.9847524    0.00000       Uiso       1.00
      C146          C  0.9636170  0.5162757  0.9562691    0.00000       Uiso       1.00
      C147          C  0.9686826  0.5035548  0.9692485    0.00000       Uiso       1.00
      C148          C  0.9979190  0.5154333  0.9837499    0.00000       Uiso       1.00
       H41          H  0.0662618  0.5315008  0.9840873    0.00000       Uiso       1.00
       H42          H  0.0033571  0.4962990  0.9490494    0.00000       Uiso       1.00
      C149          C  0.0961399  0.5426450  0.0415349    0.00000       Uiso       1.00
      C150          C  0.0964118  0.5437749  0.0162625    0.00000       Uiso       1.00
      C151          C  0.0656458  0.5307968  0.0035402    0.00000       Uiso       1.00
      C152          C  0.0649949  0.5284969  0.0538887    0.00000       Uiso       1.00
      C153          C  0.0342688  0.5153076  0.0409252    0.00000       Uiso       1.00
      C154          C  0.0337866  0.5163001  0.0154193    0.00000       Uiso       1.00
       H43          H  0.0439198  0.5509973  0.9962787    0.00000       Uiso       1.00
       H44          H  0.9811866  0.5159581  0.0315100    0.00000       Uiso       1.00
      C155          C  0.0109210  0.4574208  0.9585057    0.00000       Uiso       1.00
      C156          C  0.0089138  0.4562812  0.9837776    0.00000       Uiso       1.00
      C157          C  0.0041042  0.4692604  0.9964969    0.00000       Uiso       1.00
      C158          C  0.0080924  0.4715792  0.9461492    0.00000       Uiso       1.00
      C159          C  0.0037454  0.4847699  0.9591102    0.00000       Uiso       1.00
      C160          C  0.0012542  0.4837652  0.9846157    0.00000       Uiso       1.00
       H45          H  0.9419996  0.4490652  0.0037613    0.00000       Uiso       1.00
       H46          H  0.9493249  0.4841032  0.9685368    0.00000       Uiso       1.00
      C161          C  0.9049844  0.4585119  0.0426245    0.00000       Uiso       1.00
      C162          C  0.9096227  0.4461580  0.0284702    0.00000       Uiso       1.00
      C163          C  0.9401252  0.4591224  0.0152810    0.00000       Uiso       1.00
      C164          C  0.9311206  0.4837843  0.0437622    0.00000       Uiso       1.00
      C165          C  0.9616328  0.4965067  0.0307866    0.00000       Uiso       1.00
      C166          C  0.9671127  0.4846285  0.0162834    0.00000       Uiso       1.00
       H47          H  0.0032823  0.4685440  0.0159498    0.00000       Uiso       1.00
       H48          H  0.0108203  0.5037888  0.0509856    0.00000       Uiso       1.00
      C167          C  0.0102448  0.4726074  0.9209208    0.00000       Uiso       1.00
      C168          C  0.0151691  0.4598319  0.9081663    0.00000       Uiso       1.00
      C169          C  0.0122996  0.4424111  0.9959487    0.00000       Uiso       1.00
      C170          C  0.0177162  0.4299145  0.9832372    0.00000       Uiso       1.00
      C171          C  0.0414698  0.5791290  0.9725940    0.00000       Uiso       1.00
      C172          C  0.0365300  0.5918878  0.9598200    0.00000       Uiso       1.00
      C173          C  0.9341913  0.5041053  0.9423962    0.00000       Uiso       1.00
      C174          C  0.9289980  0.5168222  0.9298963    0.00000       Uiso       1.00
      C175          C  0.9260314  0.4959538  0.0576311    0.00000       Uiso       1.00
      C176          C  0.8954015  0.4832365  0.0701248    0.00000       Uiso       1.00
      C177          C  0.1275388  0.5576379  0.0040924    0.00000       Uiso       1.00
      C178          C  0.1579467  0.5701353  0.0168092    0.00000       Uiso       1.00
       N37          N  0.0172538  0.4614781  0.8810936    0.00000       Uiso       1.00
       O73          O  0.0144325  0.4734915  0.8706945    0.00000       Uiso       1.00
       O74          O  0.0217460  0.4507856  0.8697981    0.00000       Uiso       1.00
       N38          N  0.0072982  0.4875754  0.9071052    0.00000       Uiso       1.00
       O75          O  0.0091559  0.4884365  0.8854074    0.00000       Uiso       1.00
       O76          O  0.0030788  0.4987077  0.9177300    0.00000       Uiso       1.00
       N39          N  0.0214212  0.4153829  0.9970972    0.00000       Uiso       1.00
       O77          O  0.0196201  0.4145625  0.0187981    0.00000       Uiso       1.00
       O78          O  0.0261900  0.4045587  0.9865056    0.00000       Uiso       1.00
       N40          N  0.0104596  0.4409043  0.0230318    0.00000       Uiso       1.00
       O79          O  0.0133851  0.4289502  0.0334352    0.00000       Uiso       1.00
       O80          O  0.0060609  0.4516501  0.0343308    0.00000       Uiso       1.00
       N41          N  0.9534482  0.5230361  0.0591402    0.00000       Uiso       1.00
       O81          O  0.9489704  0.5334394  0.0710926    0.00000       Uiso       1.00
       O82          O  0.9798948  0.5343351  0.0483990    0.00000       Uiso       1.00
       N42          N  0.8910179  0.4970926  0.0846562    0.00000       Uiso       1.00
       O83          O  0.9136949  0.5187929  0.0854775    0.00000       Uiso       1.00
       O84          O  0.8648308  0.4864977  0.0954785    0.00000       Uiso       1.00
       N43          N  0.1287116  0.5591342  0.9770087    0.00000       Uiso       1.00
       O85          O  0.1555443  0.5710814  0.9666058    0.00000       Uiso       1.00
       O86          O  0.1028218  0.5483869  0.9657086    0.00000       Uiso       1.00
       N44          N  0.1907158  0.5846595  0.0029524    0.00000       Uiso       1.00
       O87          O  0.1905589  0.5854753  0.9812511    0.00000       Uiso       1.00
       O88          O  0.2171307  0.5954824  0.0135471    0.00000       Uiso       1.00
       N45          N  0.0631598  0.6189609  0.9614617    0.00000       Uiso       1.00
       O89          O  0.0883942  0.6293643  0.9734761    0.00000       Uiso       1.00
       O90          O  0.0592673  0.6302522  0.9507638    0.00000       Uiso       1.00
       N46          N  0.0731994  0.5929441  0.9875624    0.00000       Uiso       1.00
       O91          O  0.0939009  0.6146420  0.9884238    0.00000       Uiso       1.00
       O92          O  0.0779250  0.5823188  0.9986955    0.00000       Uiso       1.00
       N47          N  0.8969082  0.5029702  0.9153586    0.00000       Uiso       1.00
       O93          O  0.8761833  0.4812699  0.9145331    0.00000       Uiso       1.00
       O94          O  0.8919166  0.5135681  0.9045354    0.00000       Uiso       1.00
       N48          N  0.9074381  0.4770230  0.9408863    0.00000       Uiso       1.00
       O95          O  0.8821585  0.4666233  0.9289293    0.00000       Uiso       1.00
       O96          O  0.9112775  0.4657204  0.9516316    0.00000       Uiso       1.00
      C179          C  0.9542634  0.8349567  0.8806677    0.00000       Uiso       1.00
      C180          C  0.9420692  0.8442318  0.8715287    0.00000       Uiso       1.00
      C181          C  0.9478921  0.8625549  0.8840296    0.00000       Uiso       1.00
      C182          C  0.9726774  0.8442335  0.9021370    0.00000       Uiso       1.00
      C183          C  0.9787192  0.8626202  0.9145899    0.00000       Uiso       1.00
      C184          C  0.9663221  0.8721582  0.9059107    0.00000       Uiso       1.00
       H49          H  0.9828837  0.8369200  0.9098167    0.00000       Uiso       1.00
       H50          H  0.9270760  0.8369169  0.8540089    0.00000       Uiso       1.00
      C185          C  0.0457571  0.1650893  0.8806425    0.00000       Uiso       1.00
      C186          C  0.0579508  0.1558131  0.8715058    0.00000       Uiso       1.00
      C187          C  0.0520201  0.1374281  0.8838513    0.00000       Uiso       1.00
      C188          C  0.0273442  0.1558148  0.9021123    0.00000       Uiso       1.00
      C189          C  0.0215247  0.1374932  0.9146134    0.00000       Uiso       1.00
      C190          C  0.0338054  0.1278921  0.9057867    0.00000       Uiso       1.00
       H51          H  0.0171383  0.1631292  0.9097901    0.00000       Uiso       1.00
       H52          H  0.0729431  0.1631261  0.8539855    0.00000       Uiso       1.00
      C191          C  0.2844016  0.1651022  0.1192883    0.00000       Uiso       1.00
      C192          C  0.2536566  0.1558271  0.1284260    0.00000       Uiso       1.00
      C193          C  0.2228167  0.1374429  0.1160811    0.00000       Uiso       1.00
      C194          C  0.2842633  0.1558254  0.0978195    0.00000       Uiso       1.00
      C195          C  0.2534395  0.1375054  0.0853183    0.00000       Uiso       1.00
      C196          C  0.2219567  0.1279062  0.0941450    0.00000       Uiso       1.00
       H53          H  0.3090971  0.1631389  0.0901408    0.00000       Uiso       1.00
       H54          H  0.2532923  0.1631420  0.1459454    0.00000       Uiso       1.00
      C197          C  0.7156311  0.8349699  0.1192995    0.00000       Uiso       1.00
      C198          C  0.7463766  0.8442460  0.1284374    0.00000       Uiso       1.00
      C199          C  0.7771986  0.8625680  0.1159347    0.00000       Uiso       1.00
      C200          C  0.7157684  0.8442444  0.0978292    0.00000       Uiso       1.00
      C201          C  0.7464986  0.8626303  0.0853747    0.00000       Uiso       1.00
      C202          C  0.7779723  0.8721691  0.0940531    0.00000       Uiso       1.00
      C203          C  0.0000147  0.0000317  0.9999722    0.00000       Uiso       1.00
       H55          H  0.6909341  0.8369300  0.0901503    0.00000       Uiso       1.00
       H56          H  0.7467418  0.8369331  0.1459581    0.00000       Uiso       1.00
       N49          N  0.9331872  0.8713804  0.8738180    0.00000       Uiso       1.00
       O97          O  0.9377006  0.8870062  0.8840593    0.00000       Uiso       1.00
       O98          O  0.9168921  0.8628287  0.8553953    0.00000       Uiso       1.00
       N50          N  0.8095543  0.8713918  0.1261440    0.00000       Uiso       1.00
       O99          O  0.8362917  0.8870165  0.1159015    0.00000       Uiso       1.00
      O100          O  0.8087468  0.8628398  0.1445661    0.00000       Uiso       1.00
       N51          N  0.0024907  0.1286715  0.9381447    0.00000       Uiso       1.00
      O101          O  0.9971079  0.1130471  0.9492598    0.00000       Uiso       1.00
      O102          O  0.9926233  0.1372254  0.9458871    0.00000       Uiso       1.00
       N52          N  0.2548353  0.1286875  0.0617861    0.00000       Uiso       1.00
      O103          O  0.2289727  0.1130645  0.0506683    0.00000       Uiso       1.00
      O104          O  0.2818134  0.1372433  0.0540459    0.00000       Uiso       1.00
       N53          N  0.9994406  0.8723022  0.9373984    0.00000       Uiso       1.00
      O105          O  0.0051080  0.8880371  0.9485165    0.00000       Uiso       1.00
      O106          O  0.0103756  0.8643271  0.9445585    0.00000       Uiso       1.00
       N54          N  0.7451381  0.8723092  0.0625649    0.00000       Uiso       1.00
      O107          O  0.7709382  0.8880433  0.0514452    0.00000       Uiso       1.00
      O108          O  0.7182508  0.8643323  0.0554053    0.00000       Uiso       1.00
       N55          N  0.0651502  0.1277484  0.8728127    0.00000       Uiso       1.00
      O109          O  0.0605362  0.1120148  0.8828799    0.00000       Uiso       1.00
      O110          O  0.0802842  0.1357232  0.8539014    0.00000       Uiso       1.00
       N56          N  0.1903275  0.1277662  0.1271170    0.00000       Uiso       1.00
      O111          O  0.1634748  0.1120334  0.1170492    0.00000       Uiso       1.00
      O112          O  0.1911433  0.1357429  0.1460270    0.00000       Uiso       1.00
      C204          C  0.9724054  0.8917380  0.9196256    0.00000       Uiso       1.00
      C205          C  0.9761539  0.9093565  0.9075195    0.00000       Uiso       1.00
      C206          C  0.9815903  0.9274557  0.9202435    0.00000       Uiso       1.00
      C207          C  0.9744993  0.8929960  0.9450574    0.00000       Uiso       1.00
      C208          C  0.9802347  0.9111245  0.9579599    0.00000       Uiso       1.00
      C209          C  0.9837292  0.9283942  0.9455409    0.00000       Uiso       1.00
       H57          H  0.9710875  0.8796028  0.9549887    0.00000       Uiso       1.00
       H58          H  0.9752995  0.9092456  0.8880951    0.00000       Uiso       1.00
      C210          C  0.0279462  0.1083159  0.9192825    0.00000       Uiso       1.00
      C211          C  0.0521298  0.1070670  0.9184539    0.00000       Uiso       1.00
      C212          C  0.0469072  0.0889401  0.9308466    0.00000       Uiso       1.00
      C213          C  0.9982167  0.0906900  0.9331432    0.00000       Uiso       1.00
      C214          C  0.9928459  0.0725934  0.9458047    0.00000       Uiso       1.00
      C215          C  0.0172121  0.0716635  0.9446130    0.00000       Uiso       1.00
       H59          H  0.9788914  0.0907887  0.9338824    0.00000       Uiso       1.00
       H60          H  0.0754605  0.1204668  0.9084780    0.00000       Uiso       1.00
      C216          C  0.1886607  0.1083301  0.0806503    0.00000       Uiso       1.00
      C217          C  0.1619737  0.1070761  0.0814888    0.00000       Uiso       1.00
      C218          C  0.1309367  0.0889460  0.0690976    0.00000       Uiso       1.00
      C219          C  0.1831437  0.0907094  0.0667827    0.00000       Uiso       1.00
      C220          C  0.1523208  0.0726127  0.0541224    0.00000       Uiso       1.00
      C221          C  0.1260846  0.0716736  0.0553222    0.00000       Uiso       1.00
       H61          H  0.2026685  0.0908119  0.0660364    0.00000       Uiso       1.00
       H62          H  0.1654484  0.1204768  0.0914731    0.00000       Uiso       1.00
      C222          C  0.8110462  0.8917469  0.0803359    0.00000       Uiso       1.00
      C223          C  0.8425342  0.9093725  0.0924400    0.00000       Uiso       1.00
      C224          C  0.8732947  0.9274684  0.0797138    0.00000       Uiso       1.00
      C225          C  0.8114662  0.8929965  0.0549041    0.00000       Uiso       1.00
      C226          C  0.8419861  0.9111240  0.0419995    0.00000       Uiso       1.00
      C227          C  0.8730306  0.9283985  0.0544164    0.00000       Uiso       1.00
       H63          H  0.7880903  0.8795980  0.0449756    0.00000       Uiso       1.00
       H64          H  0.8431619  0.9092675  0.1118644    0.00000       Uiso       1.00
      C228          C  0.9044797  0.9447009  0.0918367    0.00000       Uiso       1.00
      C229          C  0.9349520  0.9623974  0.0790779    0.00000       Uiso       1.00
      C230          C  0.9634842  0.0553569  0.9597524    0.00000       Uiso       1.00
      C231          C  0.9585426  0.0376583  0.9725261    0.00000       Uiso       1.00
       N57          N  0.9678386  0.9803215  0.0928869    0.00000       Uiso       1.00
      O113          O  0.9943151  0.9956782  0.0822541    0.00000       Uiso       1.00
      O114          O  0.9677173  0.9793295  0.1145836    0.00000       Uiso       1.00
       N58          N  0.9056834  0.9442699  0.1189102    0.00000       Uiso       1.00
      O115          O  0.9325302  0.9591066  0.1293103    0.00000       Uiso       1.00
      O116          O  0.8798041  0.9290898  0.1302056    0.00000       Uiso       1.00
       N59          N  0.9268034  0.0197345  0.9874830    0.00000       Uiso       1.00
      O117          O  0.9220709  0.0043742  0.9986026    0.00000       Uiso       1.00
      O118          O  0.9061031  0.0207309  0.9883503    0.00000       Uiso       1.00
       N60          N  0.9368373  0.0557835  0.9613901    0.00000       Uiso       1.00
      O119          O  0.9115989  0.0409417  0.9733968    0.00000       Uiso       1.00
      O120          O  0.9407210  0.0709658  0.9506975    0.00000       Uiso       1.00
      C232          C  0.9891100  0.9465189  0.9584589    0.00000       Uiso       1.00
      C233          C  0.9919395  0.9635058  0.9461051    0.00000       Uiso       1.00
      C234          C  0.9962910  0.9810447  0.9590666    0.00000       Uiso       1.00
      C235          C  0.9911140  0.9473848  0.9837298    0.00000       Uiso       1.00
      C236          C  0.9959230  0.9651723  0.9964501    0.00000       Uiso       1.00
      C237          C  0.9987795  0.9825299  0.9845710    0.00000       Uiso       1.00
       H65          H  0.0507175  0.0348046  0.9685007    0.00000       Uiso       1.00
       H66          H  0.0580536  0.0071026  0.0037037    0.00000       Uiso       1.00
      C238          C  0.0120057  0.0535395  0.9573569    0.00000       Uiso       1.00
      C239          C  0.0364193  0.0526807  0.9562264    0.00000       Uiso       1.00
      C240          C  0.0313538  0.0348931  0.9692051    0.00000       Uiso       1.00
      C241          C  0.9826570  0.0365438  0.9715063    0.00000       Uiso       1.00
      C242          C  0.9780838  0.0190073  0.9846961    0.00000       Uiso       1.00
      C243          C  0.0021133  0.0175318  0.9837031    0.00000       Uiso       1.00
       H67          H  0.9966862  0.9929660  0.9490068    0.00000       Uiso       1.00
       H68          H  0.9337637  0.9652741  0.9840484    0.00000       Uiso       1.00
      C244          C  0.0950442  0.0535471  0.0425795    0.00000       Uiso       1.00
      C245          C  0.0689054  0.0526804  0.0437198    0.00000       Uiso       1.00
      C246          C  0.0383961  0.0348911  0.0307419    0.00000       Uiso       1.00
      C247          C  0.0904117  0.0365590  0.0284218    0.00000       Uiso       1.00
      C248          C  0.0599117  0.0190209  0.0152324    0.00000       Uiso       1.00
      C249          C  0.0329204  0.0175352  0.0162378    0.00000       Uiso       1.00
       H69          H  0.9892237  0.9929829  0.0509396    0.00000       Uiso       1.00
       H70          H  0.9967302  0.9652672  0.0159023    0.00000       Uiso       1.00
      C250          C  0.9038976  0.9465216  0.0414965    0.00000       Uiso       1.00
      C251          C  0.9350453  0.9635141  0.0538491    0.00000       Uiso       1.00
      C252          C  0.9657716  0.9810511  0.0408834    0.00000       Uiso       1.00
      C253          C  0.9036217  0.9473841  0.0162241    0.00000       Uiso       1.00
      C254          C  0.9343863  0.9651728  0.0035005    0.00000       Uiso       1.00
      C255          C  0.9662485  0.9825311  0.0153773    0.00000       Uiso       1.00
       H71          H  0.0188391  0.0347863  0.0314589    0.00000       Uiso       1.00
       H72          H  0.9560945  0.0070786  0.9962159    0.00000       Uiso       1.00
      C256          C  0.1167636  0.0376823  0.0273929    0.00000       Uiso       1.00
      C257          C  0.1472190  0.0553825  0.0401670    0.00000       Uiso       1.00
      C258          C  0.0739922  0.0699374  0.0575893    0.00000       Uiso       1.00
      C259          C  0.1046181  0.0878508  0.0700845    0.00000       Uiso       1.00
      C260          C  0.9897852  0.9623820  0.9208762    0.00000       Uiso       1.00
      C261          C  0.9848587  0.9446823  0.9081181    0.00000       Uiso       1.00
      C262          C  0.9877318  0.9301298  0.9959008    0.00000       Uiso       1.00
      C263          C  0.9823195  0.9122184  0.9831846    0.00000       Uiso       1.00
      C264          C  0.8724930  0.9301251  0.0040559    0.00000       Uiso       1.00
      C265          C  0.8420876  0.9122137  0.0167746    0.00000       Uiso       1.00
      C266          C  0.0658524  0.0699435  0.9423622    0.00000       Uiso       1.00
      C267          C  0.0710460  0.0878538  0.9298641    0.00000       Uiso       1.00
       N61          N  0.1747295  0.0558202  0.0385201    0.00000       Uiso       1.00
      O121          O  0.1702921  0.0409844  0.0265073    0.00000       Uiso       1.00
      O122          O  0.2012106  0.0710051  0.0492114    0.00000       Uiso       1.00
       N62          N  0.1126624  0.0197666  0.0124256    0.00000       Uiso       1.00
      O123          O  0.1353563  0.0207625  0.0115638    0.00000       Uiso       1.00
      O124          O  0.0866848  0.0044146  0.0012943    0.00000       Uiso       1.00
       N63          N  0.1089968  0.1060886  0.0846155    0.00000       Uiso       1.00
      O125          O  0.0863166  0.1051087  0.0854365    0.00000       Uiso       1.00
      O126          O  0.1351825  0.1216820  0.0954386    0.00000       Uiso       1.00
       N64          N  0.0465775  0.0696050  0.0590968    0.00000       Uiso       1.00
      O127          O  0.0510553  0.0844856  0.0710503    0.00000       Uiso       1.00
      O128          O  0.0201330  0.0544603  0.0483522    0.00000       Uiso       1.00
       N65          N  0.8713162  0.9304581  0.9769731    0.00000       Uiso       1.00
      O129          O  0.8444818  0.9155769  0.9665709    0.00000       Uiso       1.00
      O130          O  0.8972043  0.9456049  0.9656730    0.00000       Uiso       1.00
       N66          N  0.8093152  0.8939736  0.0029199    0.00000       Uiso       1.00
      O131          O  0.8094687  0.8949490  0.9812188    0.00000       Uiso       1.00
      O132          O  0.7829013  0.8783822  0.0135158    0.00000       Uiso       1.00
       N67          N  0.0926111  0.0696192  0.9408652    0.00000       Uiso       1.00
      O133          O  0.1178987  0.0845037  0.9289169    0.00000       Uiso       1.00
      O134          O  0.0887688  0.0544770  0.9516129    0.00000       Uiso       1.00
       N68          N  0.1031467  0.1060975  0.9153386    0.00000       Uiso       1.00
      O135          O  0.1238740  0.1051241  0.9145223    0.00000       Uiso       1.00
      O136          O  0.1081438  0.1216891  0.9045151    0.00000       Uiso       1.00
       N69          N  0.9827717  0.9442377  0.8810452    0.00000       Uiso       1.00
      O137          O  0.9855881  0.9590684  0.8706412    0.00000       Uiso       1.00
      O138          O  0.9782839  0.9290528  0.8697543    0.00000       Uiso       1.00
       N70          N  0.9927313  0.9802962  0.9070605    0.00000       Uiso       1.00
      O139          O  0.9908716  0.9792987  0.8853627    0.00000       Uiso       1.00
      O140          O  0.9969506  0.9956480  0.9176852    0.00000       Uiso       1.00
       N71          N  0.9786197  0.8939810  0.9970372    0.00000       Uiso       1.00
      O141          O  0.9804223  0.8949576  0.0187381    0.00000       Uiso       1.00
      O142          O  0.9738518  0.8783906  0.9864399    0.00000       Uiso       1.00
       N72          N  0.9895729  0.9304603  0.0229837    0.00000       Uiso       1.00
      O143          O  0.9866501  0.9155806  0.0333839    0.00000       Uiso       1.00
      O144          O  0.9939713  0.9456032  0.0342857    0.00000       Uiso       1.00
      C268          C  0.7970520  0.6571180  0.7158597    0.00000       Uiso       1.00
      C269          C  0.8159585  0.6758947  0.7326303    0.00000       Uiso       1.00
      C270          C  0.8185996  0.6949654  0.7311217    0.00000       Uiso       1.00
      C271          C  0.8362217  0.7129674  0.7487608    0.00000       Uiso       1.00
      C272          C  0.8500096  0.7115918  0.7690803    0.00000       Uiso       1.00
      C273          C  0.8465983  0.6920100  0.7704183    0.00000       Uiso       1.00
      C274          C  0.8319710  0.6750569  0.7517093    0.00000       Uiso       1.00
      O145          O  0.7787932  0.6547226  0.6967064    0.00000       Uiso       1.00
       H73          H  0.8069326  0.6958559  0.7161576    0.00000       Uiso       1.00
       H74          H  0.8384909  0.7277081  0.7463381    0.00000       Uiso       1.00
       H75          H  0.8534054  0.6890134  0.7867921    0.00000       Uiso       1.00
      C275          C  0.9241681  0.6400146  0.8428676    0.00000       Uiso       1.00
      C276          C  0.9075429  0.6401537  0.8240834    0.00000       Uiso       1.00
      C277          C  0.8926029  0.6237170  0.8050173    0.00000       Uiso       1.00
      C278          C  0.8745762  0.6233359  0.7870214    0.00000       Uiso       1.00
      C279          C  0.8694230  0.6385005  0.7884006    0.00000       Uiso       1.00
      C280          C  0.8842904  0.6546859  0.8079734    0.00000       Uiso       1.00
      C281          C  0.9053353  0.6570141  0.8249176    0.00000       Uiso       1.00
      O146          O  0.9274139  0.6241278  0.8452766    0.00000       Uiso       1.00
       H76          H  0.8949839  0.6111463  0.8041297    0.00000       Uiso       1.00
       H77          H  0.8645110  0.6108556  0.7722871    0.00000       Uiso       1.00
       H78          H  0.8777350  0.6644958  0.8109803    0.00000       Uiso       1.00
      C282          C  0.9412815  0.7841789  0.8600066    0.00000       Uiso       1.00
      C283          C  0.9433208  0.7674271  0.8598562    0.00000       Uiso       1.00
      C284          C  0.9639232  0.7689502  0.8762732    0.00000       Uiso       1.00
      C285          C  0.9643120  0.7513231  0.8766422    0.00000       Uiso       1.00
      C286          C  0.9426193  0.7310024  0.8614791    0.00000       Uiso       1.00
      C287          C  0.9216881  0.7296579  0.8453107    0.00000       Uiso       1.00
      C288          C  0.9234113  0.7483528  0.8430024    0.00000       Uiso       1.00
      O147          O  0.9580381  0.8033279  0.8758743    0.00000       Uiso       1.00
       H79          H  0.9797615  0.7839125  0.8888358    0.00000       Uiso       1.00
       H80          H  0.9814821  0.7537507  0.8891117    0.00000       Uiso       1.00
       H81          H  0.9023255  0.7132868  0.8355011    0.00000       Uiso       1.00
      C289          C  0.9203608  0.7823272  0.8444830    0.00000       Uiso       1.00
      C290          C  0.9016318  0.7644834  0.8267441    0.00000       Uiso       1.00
      C291          C  0.8808999  0.7630110  0.8105310    0.00000       Uiso       1.00
      C292          C  0.8633583  0.7455786  0.7923242    0.00000       Uiso       1.00
      C293          C  0.8676850  0.7300720  0.7890441    0.00000       Uiso       1.00
      C294          C  0.8893175  0.7322407  0.8052620    0.00000       Uiso       1.00
      C295          C  0.9043757  0.7479363  0.8251621    0.00000       Uiso       1.00
      O148          O  0.9210060  0.8001129  0.8482033    0.00000       Uiso       1.00
       H82          H  0.8782545  0.7754046  0.8120986    0.00000       Uiso       1.00
       H83          H  0.8467211  0.7446241  0.7808457    0.00000       Uiso       1.00
       H84          H  0.8961321  0.7226751  0.8016244    0.00000       Uiso       1.00
      C296          C  0.9378929  0.6555676  0.8619167    0.00000       Uiso       1.00
      C297          C  0.9378149  0.6733205  0.8627874    0.00000       Uiso       1.00
      C298          C  0.9526195  0.6895699  0.8820196    0.00000       Uiso       1.00
      C299          C  0.9534102  0.7077840  0.8821145    0.00000       Uiso       1.00
      C300          C  0.9411290  0.7110347  0.8622947    0.00000       Uiso       1.00
      C301          C  0.9270211  0.6947820  0.8428571    0.00000       Uiso       1.00
      C302          C  0.9228090  0.6748794  0.8435109    0.00000       Uiso       1.00
      O149          O  0.9519662  0.6518526  0.8790544    0.00000       Uiso       1.00
       H85          H  0.9634701  0.6880181  0.8970549    0.00000       Uiso       1.00
       H86          H  0.9639823  0.7192861  0.8977820    0.00000       Uiso       1.00
       H87          H  0.9210619  0.6983944  0.8264750    0.00000       Uiso       1.00
      C303          C  0.7935544  0.6380676  0.7176933    0.00000       Uiso       1.00
      C304          C  0.8104181  0.6371915  0.7355347    0.00000       Uiso       1.00
      C305          C  0.8074386  0.6179619  0.7369738    0.00000       Uiso       1.00
      C306          C  0.8255587  0.6178649  0.7543937    0.00000       Uiso       1.00
      C307          C  0.8486197  0.6376799  0.7699364    0.00000       Uiso       1.00
      C308          C  0.8517904  0.6571133  0.7678041    0.00000       Uiso       1.00
      C309          C  0.8312396  0.6564621  0.7521076    0.00000       Uiso       1.00
      O150          O  0.7727324  0.6209396  0.6998911    0.00000       Uiso       1.00
       H88          H  0.7908579  0.6029332  0.7245624    0.00000       Uiso       1.00
       H89          H  0.8214037  0.6022014  0.7553095    0.00000       Uiso       1.00
       H90          H  0.8717762  0.6734928  0.7773868    0.00000       Uiso       1.00
        B1          B  0.7634653  0.6316857  0.6866918    0.00000       Uiso       1.00
        B2          B  0.9451230  0.6318246  0.8683181    0.00000       Uiso       1.00
        B3          B  0.9449799  0.8133243  0.8681989    0.00000       Uiso       1.00
      C310          C  0.2029599  0.3429098  0.7158687    0.00000       Uiso       1.00
      C311          C  0.1840543  0.3241349  0.7326415    0.00000       Uiso       1.00
      C312          C  0.1814131  0.3050641  0.7311359    0.00000       Uiso       1.00
      C313          C  0.1637920  0.2870641  0.7487770    0.00000       Uiso       1.00
      C314          C  0.1500051  0.2884418  0.7690954    0.00000       Uiso       1.00
      C315          C  0.1534165  0.3080238  0.7704303    0.00000       Uiso       1.00
      C316          C  0.1680427  0.3249749  0.7517194    0.00000       Uiso       1.00
      O151          O  0.2212177  0.3453031  0.6967161    0.00000       Uiso       1.00
       H91          H  0.1930793  0.3041719  0.7161726    0.00000       Uiso       1.00
       H92          H  0.1615226  0.2723230  0.7463567    0.00000       Uiso       1.00
       H93          H  0.1466102  0.3110222  0.7868032    0.00000       Uiso       1.00
      C317          C  0.0758505  0.3600272  0.8428663    0.00000       Uiso       1.00
      C318          C  0.0924746  0.3598860  0.8240831    0.00000       Uiso       1.00
      C319          C  0.1074136  0.3763207  0.8050152    0.00000       Uiso       1.00
      C320          C  0.1254394  0.3766998  0.7870203    0.00000       Uiso       1.00
      C321          C  0.1305927  0.3615353  0.7884023    0.00000       Uiso       1.00
      C322          C  0.1157263  0.3453520  0.8079770    0.00000       Uiso       1.00
      C323          C  0.0946823  0.3430257  0.8249203    0.00000       Uiso       1.00
      O152          O  0.0726047  0.3759143  0.8452725    0.00000       Uiso       1.00
       H94          H  0.1050326  0.3888912  0.8041252    0.00000       Uiso       1.00
       H95          H  0.1355038  0.3891784  0.7722844    0.00000       Uiso       1.00
       H96          H  0.1222819  0.3355425  0.8109860    0.00000       Uiso       1.00
      C324          C  0.0587379  0.2158648  0.8600287    0.00000       Uiso       1.00
      C325          C  0.0566985  0.2326165  0.8598753    0.00000       Uiso       1.00
      C326          C  0.0360970  0.2310953  0.8762913    0.00000       Uiso       1.00
      C327          C  0.0357083  0.2487224  0.8766574    0.00000       Uiso       1.00
      C328          C  0.0574002  0.2690414  0.8614922    0.00000       Uiso       1.00
      C329          C  0.0783305  0.2703842  0.8453247    0.00000       Uiso       1.00
      C330          C  0.0766073  0.2516891  0.8430195    0.00000       Uiso       1.00
      O153          O  0.0419821  0.1967176  0.8758986    0.00000       Uiso       1.00
       H97          H  0.0202593  0.2161344  0.8888556    0.00000       Uiso       1.00
       H98          H  0.0185388  0.2462962  0.8891263    0.00000       Uiso       1.00
       H99          H  0.0976926  0.2867542  0.8355135    0.00000       Uiso       1.00
      C331          C  0.0796577  0.2177147  0.8445060    0.00000       Uiso       1.00
      C332          C  0.0983859  0.2355567  0.8267652    0.00000       Uiso       1.00
      C333          C  0.1191170  0.2370272  0.8105530    0.00000       Uiso       1.00
      C334          C  0.1366576  0.2544576  0.7923444    0.00000       Uiso       1.00
      C335          C  0.1323308  0.2699639  0.7890614    0.00000       Uiso       1.00
      C336          C  0.1106991  0.2677970  0.8052782    0.00000       Uiso       1.00
      C337          C  0.0956419  0.2521036  0.8251802    0.00000       Uiso       1.00
      O154          O  0.0790128  0.1999295  0.8482292    0.00000       Uiso       1.00
      H100          H  0.1217625  0.2246338  0.8121229    0.00000       Uiso       1.00
      H101          H  0.1532942  0.2554109  0.7808667    0.00000       Uiso       1.00
      H102          H  0.1038843  0.2773622  0.8016387    0.00000       Uiso       1.00
      C338          C  0.0621266  0.3444763  0.8619173    0.00000       Uiso       1.00
      C339          C  0.0622046  0.3267235  0.8627909    0.00000       Uiso       1.00
      C340          C  0.0474011  0.3104763  0.8820251    0.00000       Uiso       1.00
      C341          C  0.0466103  0.2922621  0.8821230    0.00000       Uiso       1.00
      C342          C  0.0588905  0.2890093  0.8623044    0.00000       Uiso       1.00
      C343          C  0.0729974  0.3052598  0.8428650    0.00000       Uiso       1.00
      C344          C  0.0772095  0.3251624  0.8435156    0.00000       Uiso       1.00
      O155          O  0.0480541  0.3481932  0.8790537    0.00000       Uiso       1.00
      H103          H  0.0365512  0.3120296  0.8970595    0.00000       Uiso       1.00
      H104          H  0.0360390  0.2807617  0.8977919    0.00000       Uiso       1.00
      H105          H  0.0789558  0.3016456  0.8264838    0.00000       Uiso       1.00
      C345          C  0.2064576  0.3619604  0.7176994    0.00000       Uiso       1.00
      C346          C  0.1895948  0.3628384  0.7355397    0.00000       Uiso       1.00
      C347          C  0.1925744  0.3820682  0.7369756    0.00000       Uiso       1.00
      C348          C  0.1744552  0.3821671  0.7543945    0.00000       Uiso       1.00
      C349          C  0.1513950  0.3623539  0.7699391    0.00000       Uiso       1.00
      C350          C  0.1482242  0.3429202  0.7678100    0.00000       Uiso       1.00
      C351          C  0.1687743  0.3435698  0.7521145    0.00000       Uiso       1.00
      O156          O  0.2272787  0.3790865  0.6998955    0.00000       Uiso       1.00
      H106          H  0.2091545  0.3970956  0.7245627    0.00000       Uiso       1.00
      H107          H  0.1786102  0.3978308  0.7553079    0.00000       Uiso       1.00
      H108          H  0.1282389  0.3265418  0.7773942    0.00000       Uiso       1.00
        B4          B  0.2365451  0.3683388  0.6866986    0.00000       Uiso       1.00
        B5          B  0.0548969  0.3682200  0.8683143    0.00000       Uiso       1.00
        B6          B  0.0550399  0.1867203  0.8682256    0.00000       Uiso       1.00
      C352          C  0.4828326  0.3428859  0.2841527    0.00000       Uiso       1.00
      C353          C  0.4641864  0.3241091  0.2673821    0.00000       Uiso       1.00
      C354          C  0.4286861  0.3050385  0.2688896    0.00000       Uiso       1.00
      C355          C  0.4103052  0.2870365  0.2512506    0.00000       Uiso       1.00
      C356          C  0.4268453  0.2884120  0.2309320    0.00000       Uiso       1.00
      C357          C  0.4625978  0.3079938  0.2295949    0.00000       Uiso       1.00
      C358          C  0.4818758  0.3249470  0.2483040    0.00000       Uiso       1.00
      O157          O  0.4693634  0.3452813  0.3033050    0.00000       Uiso       1.00
      H109          H  0.4152372  0.3041480  0.2838531    0.00000       Uiso       1.00
      H110          H  0.3830928  0.2722957  0.2536725    0.00000       Uiso       1.00
      H111          H  0.4753991  0.3109905  0.2132217    0.00000       Uiso       1.00
      C359          C  0.6441627  0.3599893  0.1571532    0.00000       Uiso       1.00
      C360          C  0.6272582  0.3598501  0.1759364    0.00000       Uiso       1.00
      C361          C  0.6451906  0.3762869  0.1950026    0.00000       Uiso       1.00
      C362          C  0.6279251  0.3766680  0.2129975    0.00000       Uiso       1.00
      C363          C  0.5924426  0.3615033  0.2116170    0.00000       Uiso       1.00
      C364          C  0.5749403  0.3453179  0.1920442    0.00000       Uiso       1.00
      C365          C  0.5913299  0.3429898  0.1751011    0.00000       Uiso       1.00
      O158          O  0.6791824  0.3758761  0.1547453    0.00000       Uiso       1.00
      H112          H  0.6727129  0.3888576  0.1958911    0.00000       Uiso       1.00
      H113          H  0.6428196  0.3891483  0.2277319    0.00000       Uiso       1.00
      H114          H  0.5487654  0.3355081  0.1890363    0.00000       Uiso       1.00
      C366          C  0.3729484  0.2158250  0.1400067    0.00000       Uiso       1.00
      C367          C  0.4084913  0.2325767  0.1401582    0.00000       Uiso       1.00
      C368          C  0.4260485  0.2310537  0.1237424    0.00000       Uiso       1.00
      C369          C  0.4616915  0.2486808  0.1233744    0.00000       Uiso       1.00
      C370          C  0.4806393  0.2690015  0.1385374    0.00000       Uiso       1.00
      C371          C  0.4623961  0.2703459  0.1547047    0.00000       Uiso       1.00
      C372          C  0.4267295  0.2516511  0.1570120    0.00000       Uiso       1.00
      O159          O  0.3514081  0.1966761  0.1241389    0.00000       Uiso       1.00
      H115          H  0.4119629  0.2160913  0.1111798    0.00000       Uiso       1.00
      H116          H  0.4740072  0.2462532  0.1109058    0.00000       Uiso       1.00
      H117          H  0.4757752  0.2867171  0.1645141    0.00000       Uiso       1.00
      C373          C  0.3557301  0.2176766  0.1555292    0.00000       Uiso       1.00
      C374          C  0.3726878  0.2355205  0.1732680    0.00000       Uiso       1.00
      C375          C  0.3548996  0.2369928  0.1894801    0.00000       Uiso       1.00
      C376          C  0.3722219  0.2544253  0.2076868    0.00000       Uiso       1.00
      C377          C  0.4075617  0.2699319  0.2109680    0.00000       Uiso       1.00
      C378          C  0.4248577  0.2677632  0.1947514    0.00000       Uiso       1.00
      C379          C  0.4085258  0.2520676  0.1748512    0.00000       Uiso       1.00
      O160          O  0.3208041  0.1998909  0.1518079    0.00000       Uiso       1.00
      H118          H  0.3274671  0.2245992  0.1879115    0.00000       Uiso       1.00
      H119          H  0.3574930  0.2553797  0.2191644    0.00000       Uiso       1.00
      H120          H  0.4508033  0.2773288  0.1983899    0.00000       Uiso       1.00
      C380          C  0.6267827  0.3444363  0.1381039    0.00000       Uiso       1.00
      C381          C  0.5911987  0.3266833  0.1372322    0.00000       Uiso       1.00
      C382          C  0.5735059  0.3104340  0.1179999    0.00000       Uiso       1.00
      C383          C  0.5378683  0.2922199  0.1179040    0.00000       Uiso       1.00
      C384          C  0.5190846  0.2889692  0.1377229    0.00000       Uiso       1.00
      C385          C  0.5374808  0.3052218  0.1571606    0.00000       Uiso       1.00
      C386          C  0.5730740  0.3251244  0.1565077    0.00000       Uiso       1.00
      O161          O  0.6482870  0.3481513  0.1209672    0.00000       Uiso       1.00
      H121          H  0.5874607  0.3119857  0.1029653    0.00000       Uiso       1.00
      H122          H  0.5254369  0.2807177  0.1022364    0.00000       Uiso       1.00
      H123          H  0.5242959  0.3016095  0.1735422    0.00000       Uiso       1.00
      C387          C  0.5174357  0.3619362  0.2823199    0.00000       Uiso       1.00
      C388          C  0.5360525  0.3628123  0.2644795    0.00000       Uiso       1.00
      C389          C  0.5715325  0.3820420  0.2630414    0.00000       Uiso       1.00
      C390          C  0.5898475  0.3821389  0.2456226    0.00000       Uiso       1.00
      C391          C  0.5732794  0.3623239  0.2300801    0.00000       Uiso       1.00
      C392          C  0.5375832  0.3428906  0.2322114    0.00000       Uiso       1.00
      C393          C  0.5183340  0.3435419  0.2479068    0.00000       Uiso       1.00
      O162          O  0.5308688  0.3790643  0.3001219    0.00000       Uiso       1.00
      H124          H  0.5850086  0.3970708  0.2754527    0.00000       Uiso       1.00
      H125          H  0.6170198  0.3978025  0.2447075    0.00000       Uiso       1.00
      H126          H  0.5248105  0.3265110  0.2226289    0.00000       Uiso       1.00
        B7          B  0.5001085  0.3683181  0.3133201    0.00000       Uiso       1.00
        B8          B  0.6814991  0.3681793  0.1317043    0.00000       Uiso       1.00
        B9          B  0.3183565  0.1866796  0.1318129    0.00000       Uiso       1.00
      C394          C  0.5171569  0.6570941  0.2841274    0.00000       Uiso       1.00
      C395          C  0.5358022  0.6758690  0.2673547    0.00000       Uiso       1.00
      C396          C  0.5713026  0.6949399  0.2688611    0.00000       Uiso       1.00
      C397          C  0.5896825  0.7129399  0.2512201    0.00000       Uiso       1.00
      C398          C  0.5731415  0.7115622  0.2309009    0.00000       Uiso       1.00
      C399          C  0.5373889  0.6919802  0.2295649    0.00000       Uiso       1.00
      C400          C  0.5181118  0.6750290  0.2482757    0.00000       Uiso       1.00
      O163          O  0.5306271  0.6547008  0.3032809    0.00000       Uiso       1.00
      H127          H  0.5847523  0.6958320  0.2838253    0.00000       Uiso       1.00
      H128          H  0.6168951  0.7276809  0.2536412    0.00000       Uiso       1.00
      H129          H  0.5245867  0.6889818  0.2131915    0.00000       Uiso       1.00
      C401          C  0.3558202  0.6399767  0.1571214    0.00000       Uiso       1.00
      C402          C  0.3727256  0.6401179  0.1759056    0.00000       Uiso       1.00
      C403          C  0.3547943  0.6236833  0.1949734    0.00000       Uiso       1.00
      C404          C  0.3720607  0.6233041  0.2129694    0.00000       Uiso       1.00
      C405          C  0.4075431  0.6384687  0.2115885    0.00000       Uiso       1.00
      C406          C  0.4250444  0.6546519  0.1920140    0.00000       Uiso       1.00
      C407          C  0.4086539  0.6569782  0.1750695    0.00000       Uiso       1.00
      O164          O  0.3208004  0.6240897  0.1547141    0.00000       Uiso       1.00
      H130          H  0.3272720  0.6111127  0.1958625    0.00000       Uiso       1.00
      H131          H  0.3571670  0.6108255  0.2277051    0.00000       Uiso       1.00
      H132          H  0.4512192  0.6644614  0.1890059    0.00000       Uiso       1.00
      C408          C  0.6270336  0.7841392  0.1399664    0.00000       Uiso       1.00
      C409          C  0.5914907  0.7673874  0.1401187    0.00000       Uiso       1.00
      C410          C  0.5739326  0.7689087  0.1237016    0.00000       Uiso       1.00
      C411          C  0.5382896  0.7512815  0.1233345    0.00000       Uiso       1.00
      C412          C  0.5193427  0.7309625  0.1384998    0.00000       Uiso       1.00
      C413          C  0.5375866  0.7296198  0.1546684    0.00000       Uiso       1.00
      C414          C  0.5732533  0.7483149  0.1569746    0.00000       Uiso       1.00
      O165          O  0.6485731  0.8032863  0.1240966    0.00000       Uiso       1.00
      H133          H  0.5880176  0.7838696  0.1111373    0.00000       Uiso       1.00
      H134          H  0.5259733  0.7537078  0.1108647    0.00000       Uiso       1.00
      H135          H  0.5242081  0.7132498  0.1644798    0.00000       Uiso       1.00
      C415          C  0.6442527  0.7822892  0.1554902    0.00000       Uiso       1.00
      C416          C  0.6272959  0.7644473  0.1732311    0.00000       Uiso       1.00
      C417          C  0.6450849  0.7629767  0.1894444    0.00000       Uiso       1.00
      C418          C  0.6277636  0.7455463  0.2076531    0.00000       Uiso       1.00
      C419          C  0.5924240  0.7300400  0.2109349    0.00000       Uiso       1.00
      C420          C  0.5751272  0.7322070  0.1947169    0.00000       Uiso       1.00
      C421          C  0.5914580  0.7479004  0.1748149    0.00000       Uiso       1.00
      O166          O  0.6791785  0.8000745  0.1517680    0.00000       Uiso       1.00
      H136          H  0.6725174  0.7753702  0.1878754    0.00000       Uiso       1.00
      H137          H  0.6424931  0.7445931  0.2191317    0.00000       Uiso       1.00
      H138          H  0.5491817  0.7226418  0.1983555    0.00000       Uiso       1.00
      C422          C  0.3731993  0.6555277  0.1380705    0.00000       Uiso       1.00
      C423          C  0.4087831  0.6732805  0.1371979    0.00000       Uiso       1.00
      C424          C  0.4264750  0.6895276  0.1179639    0.00000       Uiso       1.00
      C425          C  0.4621126  0.7077419  0.1178670    0.00000       Uiso       1.00
      C426          C  0.4808972  0.7109947  0.1376865    0.00000       Uiso       1.00
      C427          C  0.4625021  0.6947442  0.1571258    0.00000       Uiso       1.00
      C428          C  0.4269089  0.6748415  0.1564742    0.00000       Uiso       1.00
      O167          O  0.3516940  0.6518107  0.1209332    0.00000       Uiso       1.00
      H139          H  0.4125194  0.6879744  0.1029288    0.00000       Uiso       1.00
      H140          H  0.4745432  0.7192423  0.1021982    0.00000       Uiso       1.00
      H141          H  0.4756879  0.6983584  0.1735075    0.00000       Uiso       1.00
      C429          C  0.4825537  0.6380436  0.2822959    0.00000       Uiso       1.00
      C430          C  0.4639359  0.6371655  0.2644545    0.00000       Uiso       1.00
      C431          C  0.4284558  0.6179357  0.2630176    0.00000       Uiso       1.00
      C432          C  0.4101399  0.6178368  0.2455977    0.00000       Uiso       1.00
      C433          C  0.4267072  0.6376501  0.2300528    0.00000       Uiso       1.00
      C434          C  0.4624036  0.6570837  0.2321830    0.00000       Uiso       1.00
      C435          C  0.4816535  0.6564342  0.2478796    0.00000       Uiso       1.00
      O168          O  0.4691216  0.6209175  0.3000999    0.00000       Uiso       1.00
      H142          H  0.4149804  0.6029083  0.2754306    0.00000       Uiso       1.00
      H143          H  0.3829677  0.6021731  0.2446836    0.00000       Uiso       1.00
      H144          H  0.4751758  0.6734622  0.2225985    0.00000       Uiso       1.00
       B10          B  0.4998825  0.6316651  0.3132981    0.00000       Uiso       1.00
       B11          B  0.3184825  0.6317839  0.1316717    0.00000       Uiso       1.00
       B12          B  0.6816251  0.8132837  0.1317710    0.00000       Uiso       1.00
