data_102
_audit_creation_date              0000-00-00
_audit_creation_method            'LanYouShi'
_symmetry_space_group_name_H-M    'P1'
_cell_length_a                    74.4259033
_cell_length_b                    74.4259033
_cell_length_c                    74.4260025
_cell_angle_alpha                 60.0000000
_cell_angle_beta                  120.0009995
_cell_angle_gamma                 120.0009995
loop_
_atom_site_label
_atom_site_type_symbol
_atom_site_fract_x
_atom_site_fract_y
_atom_site_fract_z
_atom_site_U_iso_or_equiv
_atom_site_adp_type
_atom_site_occupancy
        C1          C  0.5389594  0.4127524  0.4127493    0.00000       Uiso       1.00
        C2          C  0.5373431  0.4014708  0.4338421    0.00000       Uiso       1.00
        C3          C  0.5338104  0.4111621  0.4435309    0.00000       Uiso       1.00
        C4          C  0.5373431  0.4338453  0.4014676    0.00000       Uiso       1.00
        C5          C  0.5339516  0.4436270  0.4111333    0.00000       Uiso       1.00
        C6          C  0.5319848  0.4324811  0.4323683    0.00000       Uiso       1.00
        H1          H  0.5981229  0.4669420  0.6711619    0.00000       Uiso       1.00
        H2          H  0.5386798  0.4433040  0.3842727    0.00000       Uiso       1.00
        H3          H  0.5386798  0.3842759  0.4433008    0.00000       Uiso       1.00
        C7          C  0.5873491  0.4611419  0.7135543    0.00000       Uiso       1.00
        C8          C  0.5986309  0.4627583  0.7021270    0.00000       Uiso       1.00
        C9          C  0.5889655  0.4661498  0.6792880    0.00000       Uiso       1.00
       C10          C  0.5662559  0.4627579  0.7021266    0.00000       Uiso       1.00
       C11          C  0.5565671  0.4662906  0.6792135    0.00000       Uiso       1.00
       C12          C  0.5677310  0.4681168  0.6672326    0.00000       Uiso       1.00
        H4          H  0.3289330  0.4019772  0.4601127    0.00000       Uiso       1.00
        H5          H  0.5567971  0.4614210  0.7111993    0.00000       Uiso       1.00
        H6          H  0.6158261  0.4614219  0.7112001    0.00000       Uiso       1.00
       C13          C  0.5873489  0.7135576  0.4611385    0.00000       Uiso       1.00
       C14          C  0.5662557  0.7021300  0.4627545    0.00000       Uiso       1.00
       C15          C  0.5564747  0.6792905  0.4661487    0.00000       Uiso       1.00
       C16          C  0.5986307  0.7021304  0.4627549    0.00000       Uiso       1.00
       C17          C  0.5889409  0.6792169  0.4662912    0.00000       Uiso       1.00
       C18          C  0.5676220  0.6672345  0.4681191    0.00000       Uiso       1.00
        H7          H  0.5331606  0.4601186  0.4019770    0.00000       Uiso       1.00
        H8          H  0.6158259  0.7112035  0.4614185    0.00000       Uiso       1.00
        H9          H  0.5567969  0.7112026  0.4614177    0.00000       Uiso       1.00
       C19          C  0.2865399  0.4127489  0.4127457    0.00000       Uiso       1.00
       C20          C  0.2979675  0.4338418  0.4014642    0.00000       Uiso       1.00
       C21          C  0.3208807  0.4435312  0.4111560    0.00000       Uiso       1.00
       C22          C  0.2979675  0.4014673  0.4338387    0.00000       Uiso       1.00
       C23          C  0.3208067  0.4111337  0.4436212    0.00000       Uiso       1.00
       C24          C  0.3328624  0.4323688  0.4324754    0.00000       Uiso       1.00
       H10          H  0.5399841  0.6711624  0.4669436    0.00000       Uiso       1.00
       C25          C  0.5000514  0.5000501  0.5000497    0.00000       Uiso       1.00
       H11          H  0.2888945  0.3842723  0.4432972    0.00000       Uiso       1.00
       H12          H  0.2888945  0.4433005  0.3842691    0.00000       Uiso       1.00
        S1          S  0.5309614  0.3953675  0.4705157    0.00000       Uiso       1.00
        O1          O  0.5275374  0.4080302  0.4772519    0.00000       Uiso       1.00
        O2          O  0.5505334  0.3900604  0.4859273    0.00000       Uiso       1.00
        O3          O  0.5111542  0.3739881  0.4696132    0.00000       Uiso       1.00
       H13          H  0.5096374  0.3655968  0.4839226    0.00000       Uiso       1.00
        S2          S  0.3349204  0.4705147  0.3953597    0.00000       Uiso       1.00
        O4          O  0.3577436  0.4772520  0.4080226    0.00000       Uiso       1.00
        O5          O  0.3254523  0.4859270  0.3900488    0.00000       Uiso       1.00
        O6          O  0.3324463  0.4696088  0.3739825    0.00000       Uiso       1.00
       H14          H  0.3398814  0.4839175  0.3655903    0.00000       Uiso       1.00
        S3          S  0.5295826  0.4691407  0.6651760    0.00000       Uiso       1.00
        O7          O  0.5228442  0.4725646  0.6423526    0.00000       Uiso       1.00
        O8          O  0.5304250  0.4875345  0.6674749    0.00000       Uiso       1.00
        O9          O  0.5129846  0.4480654  0.6753722    0.00000       Uiso       1.00
       H15          H  0.4986690  0.4495678  0.6679411    0.00000       Uiso       1.00
        S4          S  0.6047449  0.6651839  0.4691463    0.00000       Uiso       1.00
       O10          O  0.5920883  0.6423591  0.4725735    0.00000       Uiso       1.00
       O11          O  0.6245952  0.6674883  0.4875399    0.00000       Uiso       1.00
       O12          O  0.6104649  0.6753796  0.4480720    0.00000       Uiso       1.00
       H16          H  0.6188554  0.6679510  0.4495770    0.00000       Uiso       1.00
       C26          C  0.5279477  0.4429523  0.4426063    0.00000       Uiso       1.00
       C27          C  0.5363323  0.4385332  0.4656621    0.00000       Uiso       1.00
       C28          C  0.5324771  0.4481382  0.4752004    0.00000       Uiso       1.00
       C29          C  0.5156045  0.4575093  0.4293782    0.00000       Uiso       1.00
       C30          C  0.5118131  0.4673668  0.4386949    0.00000       Uiso       1.00
       C31          C  0.5202288  0.4626479  0.4616815    0.00000       Uiso       1.00
       H17          H  0.5085481  0.4609565  0.4117638    0.00000       Uiso       1.00
       H18          H  0.5461537  0.4278089  0.4762704    0.00000       Uiso       1.00
       C32          C  0.5574952  0.4721545  0.6424875    0.00000       Uiso       1.00
       C33          C  0.5707240  0.4845060  0.6288155    0.00000       Uiso       1.00
       C34          C  0.5614082  0.4882969  0.6058500    0.00000       Uiso       1.00
       C35          C  0.5344411  0.4637606  0.6322363    0.00000       Uiso       1.00
       C36          C  0.5249048  0.4676154  0.6092392    0.00000       Uiso       1.00
       C37          C  0.5384226  0.4798720  0.5959995    0.00000       Uiso       1.00
       H19          H  0.5238293  0.4539312  0.6421697    0.00000       Uiso       1.00
       H20          H  0.5883389  0.4915695  0.6359265    0.00000       Uiso       1.00
       C38          C  0.5571502  0.6424881  0.4721597    0.00000       Uiso       1.00
       C39          C  0.5425922  0.6288178  0.4845030    0.00000       Uiso       1.00
       C40          C  0.5327315  0.6058498  0.4882946    0.00000       Uiso       1.00
       C41          C  0.5615675  0.6322358  0.4637749    0.00000       Uiso       1.00
       C42          C  0.5519623  0.6092386  0.4676309    0.00000       Uiso       1.00
       C43          C  0.5374517  0.5959979  0.4798779    0.00000       Uiso       1.00
       H21          H  0.5722886  0.6421670  0.4539524    0.00000       Uiso       1.00
       H22          H  0.5391488  0.6359362  0.4915583    0.00000       Uiso       1.00
       C44          C  0.3576089  0.4426068  0.4429470    0.00000       Uiso       1.00
       C45          C  0.3678601  0.4656615  0.4385352    0.00000       Uiso       1.00
       C46          C  0.3908590  0.4752001  0.4481386    0.00000       Uiso       1.00
       C47          C  0.3712816  0.4293795  0.4574980    0.00000       Uiso       1.00
       C48          C  0.3942476  0.4386964  0.4673565    0.00000       Uiso       1.00
       C49          C  0.4040988  0.4616821  0.4626423    0.00000       Uiso       1.00
       H23          H  0.3641700  0.4117657  0.4609401    0.00000       Uiso       1.00
       H24          H  0.3579187  0.4762659  0.4278181    0.00000       Uiso       1.00
       C50          C  0.4009400  0.4981045  0.4434612    0.00000       Uiso       1.00
       C51          C  0.4238037  0.5074733  0.4528119    0.00000       Uiso       1.00
       C52          C  0.5019997  0.4594627  0.5991588    0.00000       Uiso       1.00
       C53          C  0.4926310  0.4636037  0.5762963    0.00000       Uiso       1.00
       H25          H  0.4912675  0.4499738  0.6089710    0.00000       Uiso       1.00
       H26          H  0.4749073  0.4572334  0.5690595    0.00000       Uiso       1.00
       H27          H  0.3911245  0.5088325  0.4324047    0.00000       Uiso       1.00
       H28          H  0.4310442  0.5251964  0.4486943    0.00000       Uiso       1.00
       C54          C  0.5162417  0.4723260  0.4711736    0.00000       Uiso       1.00
       C55          C  0.5242712  0.4672900  0.4941783    0.00000       Uiso       1.00
       C56          C  0.5197167  0.4764467  0.5035721    0.00000       Uiso       1.00
       C57          C  0.5039361  0.4867503  0.4576634    0.00000       Uiso       1.00
       C58          C  0.4997511  0.4960215  0.4672058    0.00000       Uiso       1.00
       C59          C  0.5075439  0.4912508  0.4903372    0.00000       Uiso       1.00
       H29          H  0.5435110  0.5102229  0.5266605    0.00000       Uiso       1.00
       H30          H  0.5287741  0.5327179  0.4748617    0.00000       Uiso       1.00
       C60          C  0.5289297  0.4838572  0.5728428    0.00000       Uiso       1.00
       C61          C  0.5424398  0.4961706  0.5596215    0.00000       Uiso       1.00
       C62          C  0.5328972  0.5003547  0.5366220    0.00000       Uiso       1.00
       C63          C  0.5059243  0.4758175  0.5629042    0.00000       Uiso       1.00
       C64          C  0.4965304  0.4803736  0.5397981    0.00000       Uiso       1.00
       C65          C  0.5097651  0.4925569  0.5260546    0.00000       Uiso       1.00
       H31          H  0.5252457  0.4713362  0.5212930    0.00000       Uiso       1.00
       H32          H  0.4734348  0.4565894  0.5067456    0.00000       Uiso       1.00
       C66          C  0.5277749  0.5728421  0.4838611    0.00000       Uiso       1.00
       C67          C  0.5133474  0.5596215  0.4961645    0.00000       Uiso       1.00
       C68          C  0.5040759  0.5366222  0.5003480    0.00000       Uiso       1.00
       C69          C  0.5328135  0.5629041  0.4758311    0.00000       Uiso       1.00
       C70          C  0.5236588  0.5397981  0.4803871    0.00000       Uiso       1.00
       C71          C  0.5088518  0.5260551  0.4925580    0.00000       Uiso       1.00
       H33          H  0.4673882  0.5212960  0.4713434    0.00000       Uiso       1.00
       H34          H  0.4898903  0.5067353  0.4565911    0.00000       Uiso       1.00
       C72          C  0.4272564  0.4711744  0.4723207    0.00000       Uiso       1.00
       C73          C  0.4371962  0.4941806  0.4672877    0.00000       Uiso       1.00
       C74          C  0.4603037  0.5035744  0.4764448    0.00000       Uiso       1.00
       C75          C  0.4404768  0.4576634  0.4867459    0.00000       Uiso       1.00
       C76          C  0.4634764  0.4672054  0.4960210    0.00000       Uiso       1.00
       C77          C  0.4740458  0.4903379  0.4912485    0.00000       Uiso       1.00
       H35          H  0.4933533  0.5266585  0.5102005    0.00000       Uiso       1.00
       H36          H  0.4788083  0.4748360  0.5327171    0.00000       Uiso       1.00
       C78          C  0.5472949  0.5762965  0.4636275    0.00000       Uiso       1.00
       C79          C  0.5566456  0.5991595  0.4594861    0.00000       Uiso       1.00
       C80          C  0.5087016  0.5696473  0.5043911    0.00000       Uiso       1.00
       C81          C  0.5182899  0.5924529  0.5005327    0.00000       Uiso       1.00
       C82          C  0.5364752  0.4528084  0.5074730    0.00000       Uiso       1.00
       C83          C  0.5406181  0.4434550  0.4981057    0.00000       Uiso       1.00
       C84          C  0.4957109  0.4913974  0.4347642    0.00000       Uiso       1.00
       C85          C  0.4995747  0.4818094  0.4254076    0.00000       Uiso       1.00
       C86          C  0.4304495  0.4347648  0.4913894    0.00000       Uiso       1.00
       C87          C  0.4076424  0.4254100  0.4817973    0.00000       Uiso       1.00
       C88          C  0.5653386  0.5044054  0.5696478    0.00000       Uiso       1.00
       C89          C  0.5746947  0.5005433  0.5924551    0.00000       Uiso       1.00
       H37          H  0.5760660  0.5139955  0.5598117    0.00000       Uiso       1.00
       H38          H  0.5923863  0.5072125  0.5996315    0.00000       Uiso       1.00
       H39          H  0.5144371  0.5996282  0.5071968    0.00000       Uiso       1.00
       H40          H  0.4977214  0.5598122  0.5139734    0.00000       Uiso       1.00
       H41          H  0.5514201  0.5690583  0.4572658    0.00000       Uiso       1.00
       H42          H  0.5677090  0.6089727  0.4500054    0.00000       Uiso       1.00
       H43          H  0.4929149  0.4856609  0.4077157    0.00000       Uiso       1.00
       H44          H  0.4861280  0.5023775  0.4240337    0.00000       Uiso       1.00
       H45          H  0.5428364  0.4486838  0.5251960    0.00000       Uiso       1.00
       H46          H  0.5500990  0.4323911  0.5088336    0.00000       Uiso       1.00
       H47          H  0.4004652  0.4077194  0.4856476    0.00000       Uiso       1.00
       H48          H  0.4402845  0.4240371  0.5023714    0.00000       Uiso       1.00
       C90          C  0.0584880  0.1846971  0.4127568    0.00000       Uiso       1.00
       C91          C  0.0697699  0.1732699  0.4338498    0.00000       Uiso       1.00
       C92          C  0.0600783  0.1503568  0.4435385    0.00000       Uiso       1.00
       C93          C  0.0373949  0.1732694  0.4014749    0.00000       Uiso       1.00
       C94          C  0.0276129  0.1504302  0.4111404    0.00000       Uiso       1.00
       C95          C  0.0387590  0.1383744  0.4323756    0.00000       Uiso       1.00
       H49          H  0.0042997  0.9312592  0.6711679    0.00000       Uiso       1.00
       H50          H  0.0279360  0.1823421  0.3842798    0.00000       Uiso       1.00
       H51          H  0.0869651  0.1823430  0.4433087    0.00000       Uiso       1.00
       C96          C  0.0100998  0.8838930  0.7135604    0.00000       Uiso       1.00
       C97          C  0.0084835  0.9049858  0.7021329    0.00000       Uiso       1.00
       C98          C  0.0050918  0.9147678  0.6792940    0.00000       Uiso       1.00
       C99          C  0.0084835  0.8726113  0.7021329    0.00000       Uiso       1.00
      C100          C  0.0049506  0.8823027  0.6792200    0.00000       Uiso       1.00
      C101          C  0.0031244  0.9036214  0.6672389    0.00000       Uiso       1.00
       H52          H  0.0692612  0.9380805  0.4601234    0.00000       Uiso       1.00
       H53          H  0.0098201  0.8554164  0.7112058    0.00000       Uiso       1.00
       H54          H  0.0098202  0.9144445  0.7112058    0.00000       Uiso       1.00
      C102          C  0.7576807  0.8838893  0.4611409    0.00000       Uiso       1.00
      C103          C  0.7691082  0.8726078  0.4627574    0.00000       Uiso       1.00
      C104          C  0.7919478  0.8822721  0.4661521    0.00000       Uiso       1.00
      C105          C  0.7691082  0.9049823  0.4627574    0.00000       Uiso       1.00
      C106          C  0.7920219  0.9146700  0.4662941    0.00000       Uiso       1.00
      C107          C  0.8040041  0.9035054  0.4681225    0.00000       Uiso       1.00
       H55          H  0.0111211  0.1423036  0.4019839    0.00000       Uiso       1.00
       H56          H  0.7600353  0.9144409  0.4614206    0.00000       Uiso       1.00
       H57          H  0.7600352  0.8554127  0.4614206    0.00000       Uiso       1.00
      C108          C  0.0584886  0.9322821  0.4127569    0.00000       Uiso       1.00
      C109          C  0.0373955  0.9338981  0.4014749    0.00000       Uiso       1.00
      C110          C  0.0277065  0.9374303  0.4111663    0.00000       Uiso       1.00
      C111          C  0.0697705  0.9338986  0.4338498    0.00000       Uiso       1.00
      C112          C  0.0601044  0.9372891  0.4436319    0.00000       Uiso       1.00
      C113          C  0.0388692  0.9392554  0.4324856    0.00000       Uiso       1.00
       H58          H  0.8000758  0.8731146  0.4669474    0.00000       Uiso       1.00
      C114          C  0.9711900  0.9711900  0.5000565    0.00000       Uiso       1.00
       H59          H  0.0869657  0.9325621  0.4433088    0.00000       Uiso       1.00
       H60          H  0.0279366  0.9325612  0.3842798    0.00000       Uiso       1.00
        S5          S  0.0758732  0.1363177  0.4705236    0.00000       Uiso       1.00
       O13          O  0.0632103  0.1134946  0.4772597    0.00000       Uiso       1.00
       O14          O  0.0811807  0.1457856  0.4859349    0.00000       Uiso       1.00
       O15          O  0.0972526  0.1387925  0.4696217    0.00000       Uiso       1.00
       H61          H  0.1056441  0.1313577  0.4839312    0.00000       Uiso       1.00
        S6          S  0.0007228  0.9402826  0.3953694    0.00000       Uiso       1.00
       O16          O  0.9939862  0.9437057  0.4080319    0.00000       Uiso       1.00
       O17          O  0.9853106  0.9207127  0.3900584    0.00000       Uiso       1.00
       O18          O  0.0016286  0.9600915  0.3739922    0.00000       Uiso       1.00
       H62          H  0.9873204  0.9616101  0.3655996    0.00000       Uiso       1.00
        S7          S  0.0020999  0.8665051  0.6651828    0.00000       Uiso       1.00
       O19          O  0.9986764  0.8791659  0.6423595    0.00000       Uiso       1.00
       O20          O  0.9837065  0.8466544  0.6674815    0.00000       Uiso       1.00
       O21          O  0.0231753  0.8607863  0.6753796    0.00000       Uiso       1.00
       H63          H  0.0216727  0.8523991  0.6679487    0.00000       Uiso       1.00
        S8          S  0.8060554  0.9416522  0.4691492    0.00000       Uiso       1.00
       O22          O  0.8288803  0.9483933  0.4725770    0.00000       Uiso       1.00
       O23          O  0.8037513  0.9408049  0.4875425    0.00000       Uiso       1.00
       O24          O  0.7958596  0.9582507  0.4480747    0.00000       Uiso       1.00
       H64          H  0.8032885  0.9725652  0.4495797    0.00000       Uiso       1.00
      C115          C  0.0282876  0.1136278  0.4426136    0.00000       Uiso       1.00
      C116          C  0.0327069  0.1033760  0.4656692    0.00000       Uiso       1.00
      C117          C  0.0231017  0.0803773  0.4752075    0.00000       Uiso       1.00
      C118          C  0.0137303  0.0999554  0.4293854    0.00000       Uiso       1.00
      C119          C  0.0038725  0.0769896  0.4387020    0.00000       Uiso       1.00
      C120          C  0.0085916  0.0671378  0.4616886    0.00000       Uiso       1.00
       H65          H  0.0102829  0.1070661  0.4117711    0.00000       Uiso       1.00
       H66          H  0.0434315  0.1133136  0.4762776    0.00000       Uiso       1.00
      C121          C  0.9990871  0.9140928  0.6424938    0.00000       Uiso       1.00
      C122          C  0.9867357  0.9286422  0.6288215    0.00000       Uiso       1.00
      C123          C  0.9829445  0.9385008  0.6058561    0.00000       Uiso       1.00
      C124          C  0.0074801  0.9096835  0.6322432    0.00000       Uiso       1.00
      C125          C  0.0036251  0.9192895  0.6092461    0.00000       Uiso       1.00
      C126          C  0.9913692  0.9337903  0.5960061    0.00000       Uiso       1.00
       H67          H  0.0173095  0.8989677  0.6421769    0.00000       Uiso       1.00
       H68          H  0.9796723  0.9320827  0.6359321    0.00000       Uiso       1.00
      C127          C  0.8287508  0.9137396  0.4721636    0.00000       Uiso       1.00
      C128          C  0.8424211  0.9005086  0.4845073    0.00000       Uiso       1.00
      C129          C  0.8653893  0.9098244  0.4882994    0.00000       Uiso       1.00
      C130          C  0.8390034  0.9367942  0.4637789    0.00000       Uiso       1.00
      C131          C  0.8620006  0.9463304  0.4676354    0.00000       Uiso       1.00
      C132          C  0.8752414  0.9328134  0.4798828    0.00000       Uiso       1.00
       H69          H  0.8290722  0.9474067  0.4539562    0.00000       Uiso       1.00
       H70          H  0.8353025  0.8828913  0.4915625    0.00000       Uiso       1.00
      C133          C  0.0286314  0.9432923  0.4429567    0.00000       Uiso       1.00
      C134          C  0.0055766  0.9349006  0.4385444    0.00000       Uiso       1.00
      C135          C  0.9960387  0.9387575  0.4481474    0.00000       Uiso       1.00
      C136          C  0.0418592  0.9556419  0.4575077    0.00000       Uiso       1.00
      C137          C  0.0325424  0.9594325  0.4673657    0.00000       Uiso       1.00
      C138          C  0.0095567  0.9510122  0.4626511    0.00000       Uiso       1.00
       H71          H  0.0594731  0.9627020  0.4609502    0.00000       Uiso       1.00
       H72          H  0.9949724  0.9250715  0.4278274    0.00000       Uiso       1.00
      C139          C  0.9731342  0.9306114  0.4434695    0.00000       Uiso       1.00
      C140          C  0.9637654  0.9347557  0.4528197    0.00000       Uiso       1.00
      C141          C  0.0117776  0.9146172  0.5991662    0.00000       Uiso       1.00
      C142          C  0.0076363  0.9239698  0.5763037    0.00000       Uiso       1.00
       H73          H  0.0212665  0.9035617  0.6089787    0.00000       Uiso       1.00
       H74          H  0.0140064  0.9198530  0.5690673    0.00000       Uiso       1.00
       H75          H  0.9624058  0.9211240  0.4324130    0.00000       Uiso       1.00
       H76          H  0.9460423  0.9283906  0.4487018    0.00000       Uiso       1.00
      C143          C  0.9989139  0.0439801  0.4711806    0.00000       Uiso       1.00
      C144          C  0.0039496  0.0340413  0.4941852    0.00000       Uiso       1.00
      C145          C  0.9947932  0.0109360  0.5035790    0.00000       Uiso       1.00
      C146          C  0.9844891  0.0307601  0.4576703    0.00000       Uiso       1.00
      C147          C  0.9752178  0.0077613  0.4672127    0.00000       Uiso       1.00
      C148          C  0.9799896  0.9971945  0.4903440    0.00000       Uiso       1.00
       H77          H  0.9610180  0.9778666  0.5266666    0.00000       Uiso       1.00
       H78          H  0.9385223  0.9924330  0.4748676    0.00000       Uiso       1.00
      C149          C  0.9873837  0.9434687  0.5728495    0.00000       Uiso       1.00
      C150          C  0.9750704  0.9578868  0.5596278    0.00000       Uiso       1.00
      C151          C  0.9708860  0.9671595  0.5366283    0.00000       Uiso       1.00
      C152          C  0.9954232  0.9384415  0.5629113    0.00000       Uiso       1.00
      C153          C  0.9908668  0.9475973  0.5398053    0.00000       Uiso       1.00
      C154          C  0.9786835  0.9623923  0.5260613    0.00000       Uiso       1.00
       H79          H  0.9999040  0.0038548  0.5212999    0.00000       Uiso       1.00
       H80          H  0.0146504  0.9813386  0.5067534    0.00000       Uiso       1.00
      C155          C  0.8983974  0.9423095  0.4838665    0.00000       Uiso       1.00
      C156          C  0.9116181  0.9287992  0.4961703    0.00000       Uiso       1.00
      C157          C  0.9346175  0.9383438  0.5003542    0.00000       Uiso       1.00
      C158          C  0.9083356  0.9653162  0.4758365    0.00000       Uiso       1.00
      C159          C  0.9314418  0.9747119  0.4803930    0.00000       Uiso       1.00
      C160          C  0.9451848  0.9614769  0.4925644    0.00000       Uiso       1.00
       H81          H  0.9499434  0.9459865  0.4713504    0.00000       Uiso       1.00
       H82          H  0.9645046  0.9978022  0.4565980    0.00000       Uiso       1.00
      C161          C  0.0000644  0.9549991  0.4723290    0.00000       Uiso       1.00
      C162          C  0.9770586  0.9469655  0.4672955    0.00000       Uiso       1.00
      C163          C  0.9676651  0.9515224  0.4764521    0.00000       Uiso       1.00
      C164          C  0.0135759  0.9673058  0.4867542    0.00000       Uiso       1.00
      C165          C  0.0040341  0.9714885  0.4960288    0.00000       Uiso       1.00
      C166          C  0.9809020  0.9636976  0.4912559    0.00000       Uiso       1.00
       H83          H  0.9445812  0.9277323  0.5102070    0.00000       Uiso       1.00
       H84          H  0.9964042  0.9424937  0.5327247    0.00000       Uiso       1.00
      C167          C  0.8949432  0.9786090  0.4636325    0.00000       Uiso       1.00
      C168          C  0.8720800  0.9692378  0.4594907    0.00000       Uiso       1.00
      C169          C  0.9015920  0.9059007  0.5043968    0.00000       Uiso       1.00
      C170          C  0.8787862  0.8965417  0.5005379    0.00000       Uiso       1.00
      C171          C  0.0184316  0.0474325  0.5074800    0.00000       Uiso       1.00
      C172          C  0.0277851  0.0702963  0.4981127    0.00000       Uiso       1.00
      C173          C  0.9798418  0.0407869  0.4347712    0.00000       Uiso       1.00
      C174          C  0.9894301  0.0635954  0.4254147    0.00000       Uiso       1.00
      C175          C  0.0364747  0.9755337  0.4913982    0.00000       Uiso       1.00
      C176          C  0.0458293  0.9716734  0.4818065    0.00000       Uiso       1.00
      C177          C  0.9668359  0.9625247  0.5696536    0.00000       Uiso       1.00
      C178          C  0.9706981  0.9529358  0.5924608    0.00000       Uiso       1.00
       H85          H  0.9572456  0.9734979  0.5598173    0.00000       Uiso       1.00
       H86          H  0.9640291  0.9567819  0.5996368    0.00000       Uiso       1.00
       H87          H  0.8716107  0.8788491  0.5072020    0.00000       Uiso       1.00
       H88          H  0.9114271  0.8951733  0.5139794    0.00000       Uiso       1.00
       H89          H  0.9021816  0.9963343  0.4572708    0.00000       Uiso       1.00
       H90          H  0.8622669  0.9799688  0.4500097    0.00000       Uiso       1.00
       H91          H  0.9855784  0.0707760  0.4077228    0.00000       Uiso       1.00
       H92          H  0.9688616  0.0309542  0.4240407    0.00000       Uiso       1.00
       H93          H  0.0225563  0.0401954  0.5252029    0.00000       Uiso       1.00
       H94          H  0.0388494  0.0801136  0.5088406    0.00000       Uiso       1.00
       H95          H  0.0635200  0.9783366  0.4856572    0.00000       Uiso       1.00
       H96          H  0.0472027  0.9851147  0.5023802    0.00000       Uiso       1.00
      C179          C  0.2865403  0.9322710  0.4127456    0.00000       Uiso       1.00
      C180          C  0.2979679  0.9338874  0.4338386    0.00000       Uiso       1.00
      C181          C  0.3208812  0.9374204  0.4435278    0.00000       Uiso       1.00
      C182          C  0.2979679  0.9338875  0.4014641    0.00000       Uiso       1.00
      C183          C  0.3208072  0.9372792  0.4111302    0.00000       Uiso       1.00
      C184          C  0.3328634  0.9392462  0.4323654    0.00000       Uiso       1.00
       H97          H  0.5399825  0.8731125  0.6711611    0.00000       Uiso       1.00
       H98          H  0.2888949  0.9325506  0.3842691    0.00000       Uiso       1.00
       H99          H  0.2888950  0.9325507  0.4432972    0.00000       Uiso       1.00
      C185          C  0.5873494  0.8838869  0.7135543    0.00000       Uiso       1.00
      C186          C  0.5662562  0.8726049  0.7021265    0.00000       Uiso       1.00
      C187          C  0.5564741  0.8822700  0.6792876    0.00000       Uiso       1.00
      C188          C  0.5986313  0.9049799  0.7021270    0.00000       Uiso       1.00
      C189          C  0.5889396  0.9146683  0.6792139    0.00000       Uiso       1.00
      C190          C  0.5676206  0.9035043  0.6672326    0.00000       Uiso       1.00
      H100          H  0.5331609  0.1422971  0.4601156    0.00000       Uiso       1.00
      H101          H  0.6158265  0.9144388  0.7112001    0.00000       Uiso       1.00
      H102          H  0.5567974  0.8554098  0.7111993    0.00000       Uiso       1.00
      C191          C  0.5873491  0.8838869  0.4611385    0.00000       Uiso       1.00
      C192          C  0.5986310  0.9049799  0.4627549    0.00000       Uiso       1.00
      C193          C  0.5889668  0.9147606  0.4661491    0.00000       Uiso       1.00
      C194          C  0.5662559  0.8726048  0.4627545    0.00000       Uiso       1.00
      C195          C  0.5565685  0.8822945  0.4662907    0.00000       Uiso       1.00
      C196          C  0.5677334  0.9036132  0.4681191    0.00000       Uiso       1.00
      H103          H  0.3289337  0.9380704  0.4019741    0.00000       Uiso       1.00
      H104          H  0.5567970  0.8554098  0.4614177    0.00000       Uiso       1.00
      H105          H  0.6158261  0.9144388  0.4614185    0.00000       Uiso       1.00
      C197          C  0.5389593  0.1846896  0.4127494    0.00000       Uiso       1.00
      C198          C  0.5373429  0.1732621  0.4014676    0.00000       Uiso       1.00
      C199          C  0.5338105  0.1503492  0.4111591    0.00000       Uiso       1.00
      C200          C  0.5373429  0.1732621  0.4338421    0.00000       Uiso       1.00
      C201          C  0.5339522  0.1504232  0.4436243    0.00000       Uiso       1.00
      C202          C  0.5319856  0.1383677  0.4324783    0.00000       Uiso       1.00
      H106          H  0.5981246  0.9312511  0.4669445    0.00000       Uiso       1.00
      C203          C  0.5000503  0.9711818  0.5000497    0.00000       Uiso       1.00
      H107          H  0.5386796  0.1823350  0.4433008    0.00000       Uiso       1.00
      H108          H  0.5386795  0.1823350  0.3842727    0.00000       Uiso       1.00
        S9          S  0.3349207  0.9402696  0.4705129    0.00000       Uiso       1.00
       O25          O  0.3577440  0.9436940  0.4772494    0.00000       Uiso       1.00
       O26          O  0.3254528  0.9206979  0.4859240    0.00000       Uiso       1.00
       O27          O  0.3324463  0.9600765  0.4696106    0.00000       Uiso       1.00
      H109          H  0.3398813  0.9615934  0.4839201    0.00000       Uiso       1.00
       S10          S  0.5309577  0.1363097  0.3953625    0.00000       Uiso       1.00
       O28          O  0.5275344  0.1134868  0.4080251    0.00000       Uiso       1.00
       O29          O  0.5505276  0.1457779  0.3900520    0.00000       Uiso       1.00
       O30          O  0.5111485  0.1387834  0.3739851    0.00000       Uiso       1.00
      H110          H  0.5096297  0.1313484  0.3655927    0.00000       Uiso       1.00
       S11          S  0.6047375  0.9416528  0.6651770    0.00000       Uiso       1.00
       O31          O  0.5920763  0.9483909  0.6423536    0.00000       Uiso       1.00
       O32          O  0.6245881  0.9408107  0.6674763    0.00000       Uiso       1.00
       O33          O  0.6104568  0.9582506  0.6753736    0.00000       Uiso       1.00
      H111          H  0.6188440  0.9725661  0.6679429    0.00000       Uiso       1.00
       S12          S  0.5295860  0.8664902  0.4691452    0.00000       Uiso       1.00
       O34          O  0.5228453  0.8791466  0.4725726    0.00000       Uiso       1.00
       O35          O  0.5304334  0.8466402  0.4875385    0.00000       Uiso       1.00
       O36          O  0.5129871  0.8607701  0.4480706    0.00000       Uiso       1.00
      H112          H  0.4986725  0.8523795  0.4495752    0.00000       Uiso       1.00
      C204          C  0.3576102  0.9432837  0.4426039    0.00000       Uiso       1.00
      C205          C  0.3678623  0.9348994  0.4656596    0.00000       Uiso       1.00
      C206          C  0.3908612  0.9387547  0.4751983    0.00000       Uiso       1.00
      C207          C  0.3712826  0.9556269  0.4293761    0.00000       Uiso       1.00
      C208          C  0.3942487  0.9594187  0.4386932    0.00000       Uiso       1.00
      C209          C  0.4041007  0.9510032  0.4616798    0.00000       Uiso       1.00
      H113          H  0.3641718  0.9626830  0.4117617    0.00000       Uiso       1.00
      H114          H  0.3579247  0.9250780  0.4762676    0.00000       Uiso       1.00
      C210          C  0.5571489  0.9137397  0.6424875    0.00000       Uiso       1.00
      C211          C  0.5425991  0.9005110  0.6288151    0.00000       Uiso       1.00
      C212          C  0.5327404  0.9098265  0.6058496    0.00000       Uiso       1.00
      C213          C  0.5615584  0.9367936  0.6322367    0.00000       Uiso       1.00
      C214          C  0.5519522  0.9463296  0.6092396    0.00000       Uiso       1.00
      C215          C  0.5374510  0.9328118  0.5959995    0.00000       Uiso       1.00
      H115          H  0.5722746  0.9474055  0.6421704    0.00000       Uiso       1.00
      H116          H  0.5391585  0.8828962  0.6359258    0.00000       Uiso       1.00
      C216          C  0.5574994  0.9140846  0.4721597    0.00000       Uiso       1.00
      C217          C  0.5707309  0.9286426  0.4845034    0.00000       Uiso       1.00
      C218          C  0.5614152  0.9385031  0.4882950    0.00000       Uiso       1.00
      C219          C  0.5344446  0.9096671  0.4637745    0.00000       Uiso       1.00
      C220          C  0.5249087  0.9192721  0.4676305    0.00000       Uiso       1.00
      C221          C  0.5384260  0.9337826  0.4798779    0.00000       Uiso       1.00
      H117          H  0.5238318  0.8989459  0.4539517    0.00000       Uiso       1.00
      H118          H  0.5883483  0.9320862  0.4915590    0.00000       Uiso       1.00
      C222          C  0.5279483  0.1136215  0.4429495    0.00000       Uiso       1.00
      C223          C  0.5363399  0.1033706  0.4385376    0.00000       Uiso       1.00
      C224          C  0.5324827  0.0803720  0.4481406    0.00000       Uiso       1.00
      C225          C  0.5155989  0.0999488  0.4575000    0.00000       Uiso       1.00
      C226          C  0.5118080  0.0769832  0.4673581    0.00000       Uiso       1.00
      C227          C  0.5202282  0.0671322  0.4626440    0.00000       Uiso       1.00
      H119          H  0.5085388  0.1070601  0.4609422    0.00000       Uiso       1.00
      H120          H  0.5461690  0.1133119  0.4278208    0.00000       Uiso       1.00
      C228          C  0.5406286  0.0702912  0.4434632    0.00000       Uiso       1.00
      C229          C  0.5364841  0.0474278  0.4528135    0.00000       Uiso       1.00
      C230          C  0.5566246  0.9692344  0.5991595    0.00000       Uiso       1.00
      C231          C  0.5472718  0.9786028  0.5762970    0.00000       Uiso       1.00
      H121          H  0.5676806  0.9799666  0.6089721    0.00000       Uiso       1.00
      H122          H  0.5513888  0.9963264  0.5690606    0.00000       Uiso       1.00
      H123          H  0.5501159  0.0801068  0.4324070    0.00000       Uiso       1.00
      H124          H  0.5428491  0.0401875  0.4486959    0.00000       Uiso       1.00
      C232          C  0.4272585  0.9549905  0.4711724    0.00000       Uiso       1.00
      C233          C  0.4371976  0.9469613  0.4941770    0.00000       Uiso       1.00
      C234          C  0.4603030  0.9515160  0.5035712    0.00000       Uiso       1.00
      C235          C  0.4404785  0.9672962  0.4576624    0.00000       Uiso       1.00
      C236          C  0.4634775  0.9714814  0.4672053    0.00000       Uiso       1.00
      C237          C  0.4740455  0.9636890  0.4903367    0.00000       Uiso       1.00
      H125          H  0.4933735  0.9277227  0.5266598    0.00000       Uiso       1.00
      H126          H  0.4788065  0.9424592  0.4748609    0.00000       Uiso       1.00
      C238          C  0.5277724  0.9423044  0.5728428    0.00000       Uiso       1.00
      C239          C  0.5133539  0.9287942  0.5596211    0.00000       Uiso       1.00
      C240          C  0.5040810  0.9383366  0.5366215    0.00000       Uiso       1.00
      C241          C  0.5327998  0.9653096  0.5629046    0.00000       Uiso       1.00
      C242          C  0.5236437  0.9747031  0.5397986    0.00000       Uiso       1.00
      C243          C  0.5088484  0.9614684  0.5260545    0.00000       Uiso       1.00
      H127          H  0.4673845  0.9459872  0.5212922    0.00000       Uiso       1.00
      H128          H  0.4899023  0.9977978  0.5067458    0.00000       Uiso       1.00
      C244          C  0.5289302  0.9434590  0.4838611    0.00000       Uiso       1.00
      C245          C  0.5424409  0.9578866  0.4961649    0.00000       Uiso       1.00
      C246          C  0.5328965  0.9671578  0.5003483    0.00000       Uiso       1.00
      C247          C  0.5059232  0.9384203  0.4758307    0.00000       Uiso       1.00
      C248          C  0.4965278  0.9475746  0.4803867    0.00000       Uiso       1.00
      C249          C  0.5097633  0.9623817  0.4925580    0.00000       Uiso       1.00
      H129          H  0.5252531  0.0038438  0.4713442    0.00000       Uiso       1.00
      H130          H  0.4734376  0.9813423  0.4565909    0.00000       Uiso       1.00
      C250          C  0.5162410  0.0439749  0.4723220    0.00000       Uiso       1.00
      C251          C  0.5242743  0.0340353  0.4672890    0.00000       Uiso       1.00
      C252          C  0.5197173  0.0109281  0.4764456    0.00000       Uiso       1.00
      C253          C  0.5039344  0.0307545  0.4867468    0.00000       Uiso       1.00
      C254          C  0.4997515  0.0077551  0.4960215    0.00000       Uiso       1.00
      C255          C  0.5075430  0.9971871  0.4912490    0.00000       Uiso       1.00
      H131          H  0.5435084  0.9778805  0.5102012    0.00000       Uiso       1.00
      H132          H  0.5287475  0.9924250  0.5327178    0.00000       Uiso       1.00
      C256          C  0.4926301  0.9239388  0.4636267    0.00000       Uiso       1.00
      C257          C  0.5020010  0.9145884  0.4594853    0.00000       Uiso       1.00
      C258          C  0.5653394  0.9625327  0.5043918    0.00000       Uiso       1.00
      C259          C  0.5746984  0.9529446  0.5005335    0.00000       Uiso       1.00
      C260          C  0.4238064  0.9347574  0.5074713    0.00000       Uiso       1.00
      C261          C  0.4009425  0.9306142  0.4981036    0.00000       Uiso       1.00
      C262          C  0.4304515  0.9755211  0.4347632    0.00000       Uiso       1.00
      C263          C  0.4076428  0.9716571  0.4254063    0.00000       Uiso       1.00
      C264          C  0.4957067  0.0407816  0.4913903    0.00000       Uiso       1.00
      C265          C  0.4995672  0.0635883  0.4817986    0.00000       Uiso       1.00
      C266          C  0.5087158  0.9058958  0.5696470    0.00000       Uiso       1.00
      C267          C  0.5183049  0.8965400  0.5924542    0.00000       Uiso       1.00
      H133          H  0.4977422  0.8951684  0.5598106    0.00000       Uiso       1.00
      H134          H  0.5144586  0.8788486  0.5996304    0.00000       Uiso       1.00
      H135          H  0.5923910  0.9567977  0.5071979    0.00000       Uiso       1.00
      H136          H  0.5760673  0.9735129  0.5139745    0.00000       Uiso       1.00
      H137          H  0.4749047  0.9198134  0.4572647    0.00000       Uiso       1.00
      H138          H  0.4912697  0.9035250  0.4500043    0.00000       Uiso       1.00
      H139          H  0.4004619  0.9783165  0.4077143    0.00000       Uiso       1.00
      H140          H  0.4402842  0.9851040  0.4240330    0.00000       Uiso       1.00
      H141          H  0.4310437  0.9283963  0.5251943    0.00000       Uiso       1.00
      H142          H  0.3911252  0.9211332  0.5088313    0.00000       Uiso       1.00
      H143          H  0.4929041  0.0707653  0.4856489    0.00000       Uiso       1.00
      H144          H  0.4861258  0.0309465  0.5023720    0.00000       Uiso       1.00
      C268          C  0.5389592  0.4127523  0.1846868    0.00000       Uiso       1.00
      C269          C  0.5373429  0.4338451  0.1732593    0.00000       Uiso       1.00
      C270          C  0.5338102  0.4435339  0.1503464    0.00000       Uiso       1.00
      C271          C  0.5373428  0.4014706  0.1732593    0.00000       Uiso       1.00
      C272          C  0.5339513  0.4111362  0.1504203    0.00000       Uiso       1.00
      C273          C  0.5319845  0.4323713  0.1383643    0.00000       Uiso       1.00
      H145          H  0.5981235  0.6711659  0.9312494    0.00000       Uiso       1.00
      H146          H  0.5386795  0.3842757  0.1823322    0.00000       Uiso       1.00
      H147          H  0.5386795  0.4433038  0.1823322    0.00000       Uiso       1.00
      C274          C  0.5873496  0.7135582  0.8838831    0.00000       Uiso       1.00
      C275          C  0.5986314  0.7021309  0.9049761    0.00000       Uiso       1.00
      C276          C  0.5889661  0.6792919  0.9147579    0.00000       Uiso       1.00
      C277          C  0.5662565  0.7021305  0.8726012    0.00000       Uiso       1.00
      C278          C  0.5565677  0.6792173  0.8822924    0.00000       Uiso       1.00
      C279          C  0.5677316  0.6672364  0.9036113    0.00000       Uiso       1.00
      H148          H  0.3289337  0.4601162  0.9380661    0.00000       Uiso       1.00
      H149          H  0.5567976  0.7112032  0.8554061    0.00000       Uiso       1.00
      H150          H  0.6158267  0.7112041  0.9144350    0.00000       Uiso       1.00
      C280          C  0.5873492  0.4611420  0.8838832    0.00000       Uiso       1.00
      C281          C  0.5662561  0.4627580  0.8726013    0.00000       Uiso       1.00
      C282          C  0.5564751  0.4661522  0.8822651    0.00000       Uiso       1.00
      C283          C  0.5986311  0.4627584  0.9049762    0.00000       Uiso       1.00
      C284          C  0.5889413  0.4662947  0.9146633    0.00000       Uiso       1.00
      C285          C  0.5676224  0.4681226  0.9034983    0.00000       Uiso       1.00
      H151          H  0.5331602  0.4019800  0.1422939    0.00000       Uiso       1.00
      H152          H  0.6158263  0.4614221  0.9144351    0.00000       Uiso       1.00
      H153          H  0.5567973  0.4614212  0.8554062    0.00000       Uiso       1.00
      C286          C  0.2865406  0.4127492  0.9322673    0.00000       Uiso       1.00
      C287          C  0.2979682  0.4014677  0.9338837    0.00000       Uiso       1.00
      C288          C  0.3208813  0.4111595  0.9374164    0.00000       Uiso       1.00
      C289          C  0.2979682  0.4338422  0.9338837    0.00000       Uiso       1.00
      C290          C  0.3208074  0.4436247  0.9372747    0.00000       Uiso       1.00
      C291          C  0.3328631  0.4324789  0.9392414    0.00000       Uiso       1.00
      H154          H  0.5399845  0.4669471  0.8731073    0.00000       Uiso       1.00
      C292          C  0.5000520  0.5000533  0.9711794    0.00000       Uiso       1.00
      H155          H  0.2888952  0.4433008  0.9325470    0.00000       Uiso       1.00
      H156          H  0.2888952  0.3842726  0.9325470    0.00000       Uiso       1.00
       S13          S  0.5309612  0.4705188  0.1363071    0.00000       Uiso       1.00
       O37          O  0.5275370  0.4772549  0.1134841    0.00000       Uiso       1.00
       O38          O  0.5505331  0.4859303  0.1457751    0.00000       Uiso       1.00
       O39          O  0.5111540  0.4696163  0.1387812    0.00000       Uiso       1.00
      H157          H  0.5096372  0.4839257  0.1313463    0.00000       Uiso       1.00
       S14          S  0.3349211  0.3953632  0.9402694    0.00000       Uiso       1.00
       O40          O  0.3577442  0.4080261  0.9436928    0.00000       Uiso       1.00
       O41          O  0.3254529  0.3900523  0.9206995    0.00000       Uiso       1.00
       O42          O  0.3324469  0.3739860  0.9600782    0.00000       Uiso       1.00
      H158          H  0.3398820  0.3655937  0.9615970    0.00000       Uiso       1.00
       S15          S  0.5295831  0.6651798  0.8664945    0.00000       Uiso       1.00
       O43          O  0.5228447  0.6423565  0.8791554    0.00000       Uiso       1.00
       O44          O  0.5304254  0.6674787  0.8466442    0.00000       Uiso       1.00
       O45          O  0.5129852  0.6753760  0.8607751    0.00000       Uiso       1.00
      H159          H  0.4986695  0.6679449  0.8523878    0.00000       Uiso       1.00
       S16          S  0.6047453  0.4691498  0.9416456    0.00000       Uiso       1.00
       O46          O  0.5920888  0.4725771  0.9483861    0.00000       Uiso       1.00
       O47          O  0.6245956  0.4875434  0.9407985    0.00000       Uiso       1.00
       O48          O  0.6104653  0.4480755  0.9582443    0.00000       Uiso       1.00
      H160          H  0.6188559  0.4495806  0.9725588    0.00000       Uiso       1.00
      C293          C  0.5279473  0.4426093  0.1136178    0.00000       Uiso       1.00
      C294          C  0.5363320  0.4656650  0.1033661    0.00000       Uiso       1.00
      C295          C  0.5324767  0.4752034  0.0803675    0.00000       Uiso       1.00
      C296          C  0.5156041  0.4293812  0.0999455    0.00000       Uiso       1.00
      C297          C  0.5118127  0.4386979  0.0769798    0.00000       Uiso       1.00
      C298          C  0.5202284  0.4616845  0.0671280    0.00000       Uiso       1.00
      H161          H  0.5085477  0.4117668  0.1070561    0.00000       Uiso       1.00
      H162          H  0.5461533  0.4762734  0.1133037    0.00000       Uiso       1.00
      C299          C  0.5574958  0.6424913  0.9140826    0.00000       Uiso       1.00
      C300          C  0.5707245  0.6288192  0.9286323    0.00000       Uiso       1.00
      C301          C  0.5614088  0.6058538  0.9384908    0.00000       Uiso       1.00
      C302          C  0.5344417  0.6322401  0.9096729    0.00000       Uiso       1.00
      C303          C  0.5249054  0.6092429  0.9192788    0.00000       Uiso       1.00
      C304          C  0.5384231  0.5960033  0.9337800    0.00000       Uiso       1.00
      H163          H  0.5238299  0.6421736  0.8989568    0.00000       Uiso       1.00
      H164          H  0.5883395  0.6359303  0.9320732    0.00000       Uiso       1.00
      C305          C  0.5571507  0.4721632  0.9137320    0.00000       Uiso       1.00
      C306          C  0.5425927  0.4845066  0.9005006    0.00000       Uiso       1.00
      C307          C  0.5327320  0.4882981  0.9098159    0.00000       Uiso       1.00
      C308          C  0.5615680  0.4637785  0.9367865    0.00000       Uiso       1.00
      C309          C  0.5519628  0.4676344  0.9463221    0.00000       Uiso       1.00
      C310          C  0.5374522  0.4798815  0.9328048    0.00000       Uiso       1.00
      H165          H  0.5722891  0.4539560  0.9473992    0.00000       Uiso       1.00
      H166          H  0.5391492  0.4915618  0.8828834    0.00000       Uiso       1.00
      C311          C  0.3576096  0.4429505  0.9432790    0.00000       Uiso       1.00
      C312          C  0.3678607  0.4385386  0.9348877    0.00000       Uiso       1.00
      C313          C  0.3908596  0.4481421  0.9387452    0.00000       Uiso       1.00
      C314          C  0.3712823  0.4575015  0.9556285    0.00000       Uiso       1.00
      C315          C  0.3942482  0.4673600  0.9594196    0.00000       Uiso       1.00
      C316          C  0.4040994  0.4626459  0.9509996    0.00000       Uiso       1.00
      H167          H  0.3641708  0.4609437  0.9626883    0.00000       Uiso       1.00
      H168          H  0.3579193  0.4278217  0.9250586    0.00000       Uiso       1.00
      C317          C  0.4009406  0.4434648  0.9305995    0.00000       Uiso       1.00
      C318          C  0.4238043  0.4528154  0.9347442    0.00000       Uiso       1.00
      C319          C  0.5020003  0.5991625  0.9146062    0.00000       Uiso       1.00
      C320          C  0.4926316  0.5763000  0.9239587    0.00000       Uiso       1.00
      H169          H  0.4912681  0.6089748  0.9035502    0.00000       Uiso       1.00
      H170          H  0.4749079  0.5690632  0.9198415    0.00000       Uiso       1.00
      H171          H  0.3911251  0.4324082  0.9211122    0.00000       Uiso       1.00
      H172          H  0.4310448  0.4486978  0.9283795    0.00000       Uiso       1.00
      C321          C  0.5162413  0.4711767  0.0439705    0.00000       Uiso       1.00
      C322          C  0.5242708  0.4941814  0.0340317    0.00000       Uiso       1.00
      C323          C  0.5197163  0.5035751  0.0109266    0.00000       Uiso       1.00
      C324          C  0.5039356  0.4576663  0.0307505    0.00000       Uiso       1.00
      C325          C  0.4997506  0.4672088  0.0077519    0.00000       Uiso       1.00
      C326          C  0.5075445  0.4903409  0.9971839    0.00000       Uiso       1.00
      H173          H  0.5435116  0.5266643  0.9778568    0.00000       Uiso       1.00
      H174          H  0.5287747  0.4748653  0.9924232    0.00000       Uiso       1.00
      C327          C  0.5289303  0.5728466  0.9434583    0.00000       Uiso       1.00
      C328          C  0.5424404  0.5596253  0.9578766    0.00000       Uiso       1.00
      C329          C  0.5328978  0.5366256  0.9671493    0.00000       Uiso       1.00
      C330          C  0.5059249  0.5629079  0.9384305    0.00000       Uiso       1.00
      C331          C  0.4965310  0.5398019  0.9475864    0.00000       Uiso       1.00
      C332          C  0.5097657  0.5260582  0.9623817    0.00000       Uiso       1.00
      H175          H  0.5252452  0.5212960  0.0038453    0.00000       Uiso       1.00
      H176          H  0.4734355  0.5067492  0.9813269    0.00000       Uiso       1.00
      C333          C  0.5277755  0.4838647  0.9423004    0.00000       Uiso       1.00
      C334          C  0.5133479  0.4961681  0.9287897    0.00000       Uiso       1.00
      C335          C  0.5040765  0.5003515  0.9383338    0.00000       Uiso       1.00
      C336          C  0.5328140  0.4758347  0.9653071    0.00000       Uiso       1.00
      C337          C  0.5236595  0.4803907  0.9747022    0.00000       Uiso       1.00
      C338          C  0.5088524  0.4925617  0.9614668    0.00000       Uiso       1.00
      H177          H  0.4673887  0.4713470  0.9459757    0.00000       Uiso       1.00
      H178          H  0.4898910  0.4565947  0.9977916    0.00000       Uiso       1.00
      C339          C  0.4272570  0.4723243  0.9549871    0.00000       Uiso       1.00
      C340          C  0.4371969  0.4672913  0.9469540    0.00000       Uiso       1.00
      C341          C  0.4603043  0.4764484  0.9515113    0.00000       Uiso       1.00
      C342          C  0.4404774  0.4867495  0.9672937    0.00000       Uiso       1.00
      C343          C  0.4634771  0.4960246  0.9714769    0.00000       Uiso       1.00
      C344          C  0.4740464  0.4912522  0.9636865    0.00000       Uiso       1.00
      H179          H  0.4933538  0.5102041  0.9277220    0.00000       Uiso       1.00
      H180          H  0.4788089  0.5327208  0.9424825    0.00000       Uiso       1.00
      C345          C  0.5472955  0.4636311  0.9786001    0.00000       Uiso       1.00
      C346          C  0.5566461  0.4594897  0.9692295    0.00000       Uiso       1.00
      C347          C  0.5087020  0.5043947  0.9058914    0.00000       Uiso       1.00
      C348          C  0.5182903  0.5005363  0.8965328    0.00000       Uiso       1.00
      C349          C  0.5364748  0.5074760  0.0474229    0.00000       Uiso       1.00
      C350          C  0.5406176  0.4981087  0.0702865    0.00000       Uiso       1.00
      C351          C  0.4957104  0.4347671  0.0407773    0.00000       Uiso       1.00
      C352          C  0.4995742  0.4254106  0.0635857    0.00000       Uiso       1.00
      C353          C  0.4304501  0.4913931  0.9755211    0.00000       Uiso       1.00
      C354          C  0.4076431  0.4818009  0.9716604    0.00000       Uiso       1.00
      C355          C  0.5653391  0.5696515  0.9625151    0.00000       Uiso       1.00
      C356          C  0.5746952  0.5924588  0.9529262    0.00000       Uiso       1.00
      H181          H  0.5760666  0.5598155  0.9734886    0.00000       Uiso       1.00
      H182          H  0.5923868  0.5996353  0.9567727    0.00000       Uiso       1.00
      H183          H  0.5144375  0.5072004  0.8788404    0.00000       Uiso       1.00
      H184          H  0.4977219  0.5139771  0.8951636    0.00000       Uiso       1.00
      H185          H  0.5514207  0.4572693  0.9963254    0.00000       Uiso       1.00
      H186          H  0.5677096  0.4500090  0.9799608    0.00000       Uiso       1.00
      H187          H  0.4929145  0.4077186  0.0707663    0.00000       Uiso       1.00
      H188          H  0.4861275  0.4240367  0.0309446    0.00000       Uiso       1.00
      H189          H  0.5428360  0.5251991  0.0401858    0.00000       Uiso       1.00
      H190          H  0.5500986  0.5088366  0.0801037    0.00000       Uiso       1.00
      H191          H  0.4004659  0.4856512  0.9783232    0.00000       Uiso       1.00
      H192          H  0.4402852  0.5023750  0.9851021    0.00000       Uiso       1.00
      C357          C  0.0584889  0.4127603  0.9322785    0.00000       Uiso       1.00
      C358          C  0.0697708  0.4338532  0.9338949    0.00000       Uiso       1.00
      C359          C  0.0600792  0.4435419  0.9374274    0.00000       Uiso       1.00
      C360          C  0.0373958  0.4014782  0.9338944    0.00000       Uiso       1.00
      C361          C  0.0276138  0.4111438  0.9372857    0.00000       Uiso       1.00
      C362          C  0.0387599  0.4323790  0.9392527    0.00000       Uiso       1.00
      H193          H  0.0042998  0.6711717  0.8731155    0.00000       Uiso       1.00
      H194          H  0.0279369  0.3842832  0.9325576    0.00000       Uiso       1.00
      H195          H  0.0869660  0.4433122  0.9325585    0.00000       Uiso       1.00
      C363          C  0.0100999  0.7135642  0.8838893    0.00000       Uiso       1.00
      C364          C  0.0084836  0.7021368  0.8726075    0.00000       Uiso       1.00
      C365          C  0.0050919  0.6792979  0.8822727    0.00000       Uiso       1.00
      C366          C  0.0084837  0.7021369  0.9049820    0.00000       Uiso       1.00
      C367          C  0.0049507  0.6792238  0.9146705    0.00000       Uiso       1.00
      C368          C  0.0031246  0.6672427  0.9035068    0.00000       Uiso       1.00
      H196          H  0.0692604  0.4601264  0.1423020    0.00000       Uiso       1.00
      H197          H  0.0098204  0.7112097  0.9144408    0.00000       Uiso       1.00
      H198          H  0.0098203  0.7112096  0.8554127    0.00000       Uiso       1.00
      C369          C  0.7576809  0.4611444  0.8838857    0.00000       Uiso       1.00
      C370          C  0.7691085  0.4627609  0.9049786    0.00000       Uiso       1.00
      C371          C  0.7919480  0.4661556  0.9147599    0.00000       Uiso       1.00
      C372          C  0.7691084  0.4627609  0.8726043    0.00000       Uiso       1.00
      C373          C  0.7920221  0.4662976  0.8822942    0.00000       Uiso       1.00
      C374          C  0.8040043  0.4681260  0.9036129    0.00000       Uiso       1.00
      H199          H  0.0111220  0.4019873  0.9380766    0.00000       Uiso       1.00
      H200          H  0.7600354  0.4614241  0.8554091    0.00000       Uiso       1.00
      H201          H  0.7600355  0.4614242  0.9144372    0.00000       Uiso       1.00
      C375          C  0.0584880  0.4127598  0.1846942    0.00000       Uiso       1.00
      C376          C  0.0373948  0.4014778  0.1732665    0.00000       Uiso       1.00
      C377          C  0.0277057  0.4111692  0.1503536    0.00000       Uiso       1.00
      C378          C  0.0697698  0.4338528  0.1732670    0.00000       Uiso       1.00
      C379          C  0.0601037  0.4436349  0.1504280    0.00000       Uiso       1.00
      C380          C  0.0388684  0.4324886  0.1383722    0.00000       Uiso       1.00
      H202          H  0.8000761  0.4669509  0.9312503    0.00000       Uiso       1.00
      C381          C  0.9711902  0.5000601  0.9711848    0.00000       Uiso       1.00
      H203          H  0.0869650  0.4433118  0.1823401    0.00000       Uiso       1.00
      H204          H  0.0279359  0.3842827  0.1823392    0.00000       Uiso       1.00
       S17          S  0.0758741  0.4705271  0.9402766    0.00000       Uiso       1.00
       O49          O  0.0632112  0.4772632  0.9437004    0.00000       Uiso       1.00
       O50          O  0.0811816  0.4859384  0.9207051    0.00000       Uiso       1.00
       O51          O  0.0972535  0.4696252  0.9600838    0.00000       Uiso       1.00
      H205          H  0.1056450  0.4839347  0.9616007    0.00000       Uiso       1.00
       S18          S  0.0007220  0.3953722  0.1363137    0.00000       Uiso       1.00
       O52          O  0.9939854  0.4080347  0.1134908    0.00000       Uiso       1.00
       O53          O  0.9853098  0.3900612  0.1457814    0.00000       Uiso       1.00
       O54          O  0.0016278  0.3739951  0.1387878    0.00000       Uiso       1.00
      H206          H  0.9873195  0.3656025  0.1313526    0.00000       Uiso       1.00
       S19          S  0.0021002  0.6651867  0.9416547    0.00000       Uiso       1.00
       O55          O  0.9986767  0.6423633  0.9483929    0.00000       Uiso       1.00
       O56          O  0.9837067  0.6674853  0.9408121    0.00000       Uiso       1.00
       O57          O  0.0231755  0.6753834  0.9582526    0.00000       Uiso       1.00
      H207          H  0.0216729  0.6679525  0.9725680    0.00000       Uiso       1.00
       S20          S  0.8060555  0.4691527  0.8664906    0.00000       Uiso       1.00
       O58          O  0.8288804  0.4725805  0.8791474    0.00000       Uiso       1.00
       O59          O  0.8037514  0.4875459  0.8466406    0.00000       Uiso       1.00
       O60          O  0.7958596  0.4480781  0.8607706    0.00000       Uiso       1.00
      H208          H  0.8032886  0.4495831  0.8523803    0.00000       Uiso       1.00
      C382          C  0.0282885  0.4426170  0.9432896    0.00000       Uiso       1.00
      C383          C  0.0327078  0.4656727  0.9349052    0.00000       Uiso       1.00
      C384          C  0.0231027  0.4752110  0.9387602    0.00000       Uiso       1.00
      C385          C  0.0137312  0.4293889  0.9556324    0.00000       Uiso       1.00
      C386          C  0.0038735  0.4387055  0.9594237    0.00000       Uiso       1.00
      C387          C  0.0085926  0.4616921  0.9510081    0.00000       Uiso       1.00
      H209          H  0.0102839  0.4117745  0.9626887    0.00000       Uiso       1.00
      H210          H  0.0434324  0.4762811  0.9250841    0.00000       Uiso       1.00
      C388          C  0.9990872  0.6424977  0.9137424    0.00000       Uiso       1.00
      C389          C  0.9867358  0.6288252  0.9005137    0.00000       Uiso       1.00
      C390          C  0.9829447  0.6058599  0.9098292    0.00000       Uiso       1.00
      C391          C  0.0074803  0.6322469  0.9367962    0.00000       Uiso       1.00
      C392          C  0.0036253  0.6092498  0.9463322    0.00000       Uiso       1.00
      C393          C  0.9913694  0.5960098  0.9328145    0.00000       Uiso       1.00
      H211          H  0.0173097  0.6421807  0.9474081    0.00000       Uiso       1.00
      H212          H  0.9796724  0.6359359  0.8828989    0.00000       Uiso       1.00
      C394          C  0.8287510  0.4721671  0.9140849    0.00000       Uiso       1.00
      C395          C  0.8424213  0.4845109  0.9286428    0.00000       Uiso       1.00
      C396          C  0.8653895  0.4883029  0.9385037    0.00000       Uiso       1.00
      C397          C  0.8390035  0.4637824  0.9096678    0.00000       Uiso       1.00
      C398          C  0.8620008  0.4676389  0.9192732    0.00000       Uiso       1.00
      C399          C  0.8752416  0.4798864  0.9337838    0.00000       Uiso       1.00
      H213          H  0.8290723  0.4539596  0.8989467    0.00000       Uiso       1.00
      H214          H  0.8353028  0.4915661  0.9320861    0.00000       Uiso       1.00
      C400          C  0.0286306  0.4429597  0.1136260    0.00000       Uiso       1.00
      C401          C  0.0055757  0.4385473  0.1033746    0.00000       Uiso       1.00
      C402          C  0.9960379  0.4481503  0.0803760    0.00000       Uiso       1.00
      C403          C  0.0418583  0.4575106  0.0999537    0.00000       Uiso       1.00
      C404          C  0.0325415  0.4673686  0.0769880    0.00000       Uiso       1.00
      C405          C  0.0095558  0.4626540  0.0671366    0.00000       Uiso       1.00
      H215          H  0.0594723  0.4609532  0.1070654    0.00000       Uiso       1.00
      H216          H  0.9949716  0.4278303  0.1133157    0.00000       Uiso       1.00
      C406          C  0.9731333  0.4434724  0.0702948    0.00000       Uiso       1.00
      C407          C  0.9637646  0.4528226  0.0474313    0.00000       Uiso       1.00
      C408          C  0.0117779  0.5991699  0.9692371    0.00000       Uiso       1.00
      C409          C  0.0076366  0.5763075  0.9786056    0.00000       Uiso       1.00
      H217          H  0.0212667  0.6089824  0.9799693    0.00000       Uiso       1.00
      H218          H  0.0140067  0.5690710  0.9963292    0.00000       Uiso       1.00
      H219          H  0.9624050  0.4324158  0.0801100    0.00000       Uiso       1.00
      H220          H  0.9460415  0.4487047  0.0401907    0.00000       Uiso       1.00
      C410          C  0.9989149  0.4711842  0.9549951    0.00000       Uiso       1.00
      C411          C  0.0039506  0.4941888  0.9469658    0.00000       Uiso       1.00
      C412          C  0.9947942  0.5035825  0.9515200    0.00000       Uiso       1.00
      C413          C  0.9844902  0.4576738  0.9673003    0.00000       Uiso       1.00
      C414          C  0.9752189  0.4672163  0.9714851    0.00000       Uiso       1.00
      C415          C  0.9799898  0.4903476  0.9636926    0.00000       Uiso       1.00
      H221          H  0.9610181  0.5266702  0.9277257    0.00000       Uiso       1.00
      H222          H  0.9385224  0.4748711  0.9424621    0.00000       Uiso       1.00
      C416          C  0.9873839  0.5728532  0.9423072    0.00000       Uiso       1.00
      C417          C  0.9750705  0.5596315  0.9287972    0.00000       Uiso       1.00
      C418          C  0.9708862  0.5366319  0.9383395    0.00000       Uiso       1.00
      C419          C  0.9954234  0.5629150  0.9653124    0.00000       Uiso       1.00
      C420          C  0.9908671  0.5398090  0.9747061    0.00000       Uiso       1.00
      C421          C  0.9786837  0.5260650  0.9614714    0.00000       Uiso       1.00
      H223          H  0.9999050  0.5213035  0.9459912    0.00000       Uiso       1.00
      H224          H  0.0146507  0.5067570  0.9978015    0.00000       Uiso       1.00
      C422          C  0.8983976  0.4838700  0.9434607    0.00000       Uiso       1.00
      C423          C  0.9116182  0.4961738  0.9578882    0.00000       Uiso       1.00
      C424          C  0.9346177  0.5003577  0.9671598    0.00000       Uiso       1.00
      C425          C  0.9083357  0.4758401  0.9384223    0.00000       Uiso       1.00
      C426          C  0.9314420  0.4803965  0.9475772    0.00000       Uiso       1.00
      C427          C  0.9451850  0.4925679  0.9623842    0.00000       Uiso       1.00
      H225          H  0.9499424  0.4713533  0.0038474    0.00000       Uiso       1.00
      H226          H  0.9645048  0.4566015  0.9813455    0.00000       Uiso       1.00
      C428          C  0.0000635  0.4723319  0.0439792    0.00000       Uiso       1.00
      C429          C  0.9770578  0.4672985  0.0340392    0.00000       Uiso       1.00
      C430          C  0.9676642  0.4764551  0.0109320    0.00000       Uiso       1.00
      C431          C  0.0135750  0.4867572  0.0307592    0.00000       Uiso       1.00
      C432          C  0.0040331  0.4960318  0.0077598    0.00000       Uiso       1.00
      C433          C  0.9809023  0.4912595  0.9971901    0.00000       Uiso       1.00
      H227          H  0.9445814  0.5102106  0.9778824    0.00000       Uiso       1.00
      H228          H  0.9964045  0.5327283  0.9924279    0.00000       Uiso       1.00
      C434          C  0.8949434  0.4636360  0.9239410    0.00000       Uiso       1.00
      C435          C  0.8720801  0.4594941  0.9145901    0.00000       Uiso       1.00
      C436          C  0.9015923  0.5044004  0.9625338    0.00000       Uiso       1.00
      C437          C  0.8787864  0.5005415  0.9529453    0.00000       Uiso       1.00
      C438          C  0.0184325  0.5074835  0.9347621    0.00000       Uiso       1.00
      C439          C  0.0277860  0.4981162  0.9306195    0.00000       Uiso       1.00
      C440          C  0.9798429  0.4347747  0.9755253    0.00000       Uiso       1.00
      C441          C  0.9894311  0.4254182  0.9716617    0.00000       Uiso       1.00
      C442          C  0.0364738  0.4914012  0.0407867    0.00000       Uiso       1.00
      C443          C  0.0458283  0.4818095  0.0635935    0.00000       Uiso       1.00
      C444          C  0.9668360  0.5696573  0.9058987    0.00000       Uiso       1.00
      C445          C  0.9706982  0.5924645  0.8965428    0.00000       Uiso       1.00
      H229          H  0.9572458  0.5598209  0.8951713    0.00000       Uiso       1.00
      H230          H  0.9640291  0.5996405  0.8788514    0.00000       Uiso       1.00
      H231          H  0.8716109  0.5072055  0.9567980    0.00000       Uiso       1.00
      H232          H  0.9114273  0.5139830  0.9735140    0.00000       Uiso       1.00
      H233          H  0.9021817  0.4572743  0.9198159    0.00000       Uiso       1.00
      H234          H  0.8622670  0.4500132  0.9035266    0.00000       Uiso       1.00
      H235          H  0.9855794  0.4077263  0.9783212    0.00000       Uiso       1.00
      H236          H  0.9688627  0.4240442  0.9851078    0.00000       Uiso       1.00
      H237          H  0.0225572  0.5252066  0.9284011    0.00000       Uiso       1.00
      H238          H  0.0388503  0.5088442  0.9211389    0.00000       Uiso       1.00
      H239          H  0.0635191  0.4856602  0.0707708    0.00000       Uiso       1.00
      H240          H  0.0472017  0.5023832  0.0309520    0.00000       Uiso       1.00
      C446          C  0.0584887  0.1846973  0.9322784    0.00000       Uiso       1.00
      C447          C  0.0373955  0.1732696  0.9338944    0.00000       Uiso       1.00
      C448          C  0.0277065  0.1503565  0.9374269    0.00000       Uiso       1.00
      C449          C  0.0697705  0.1732701  0.9338949    0.00000       Uiso       1.00
      C450          C  0.0601046  0.1504309  0.9372862    0.00000       Uiso       1.00
      C451          C  0.0388693  0.1383747  0.9392527    0.00000       Uiso       1.00
      H241          H  0.8000740  0.9312563  0.8731124    0.00000       Uiso       1.00
      H242          H  0.0869657  0.1823432  0.9325585    0.00000       Uiso       1.00
      H243          H  0.0279367  0.1823424  0.9325576    0.00000       Uiso       1.00
      C452          C  0.7576809  0.8838894  0.8838856    0.00000       Uiso       1.00
      C453          C  0.7691084  0.9049824  0.8726040    0.00000       Uiso       1.00
      C454          C  0.7919477  0.9147647  0.8822696    0.00000       Uiso       1.00
      C455          C  0.7691084  0.8726078  0.9049785    0.00000       Uiso       1.00
      C456          C  0.7920218  0.8822997  0.9146675    0.00000       Uiso       1.00
      C457          C  0.8040030  0.9036185  0.9035039    0.00000       Uiso       1.00
      H244          H  0.0111212  0.9380794  0.1423012    0.00000       Uiso       1.00
      H245          H  0.7600355  0.8554128  0.9144371    0.00000       Uiso       1.00
      H246          H  0.7600355  0.9144409  0.8554090    0.00000       Uiso       1.00
      C458          C  0.0101000  0.8838931  0.8838894    0.00000       Uiso       1.00
      C459          C  0.0084837  0.8726115  0.9049821    0.00000       Uiso       1.00
      C460          C  0.0050893  0.8822753  0.9147629    0.00000       Uiso       1.00
      C461          C  0.0084837  0.9049859  0.8726076    0.00000       Uiso       1.00
      C462          C  0.0049472  0.9146731  0.8822973    0.00000       Uiso       1.00
      C463          C  0.0031191  0.9035084  0.9036158    0.00000       Uiso       1.00
      H247          H  0.0692610  0.1423047  0.9380774    0.00000       Uiso       1.00
      H248          H  0.0098204  0.9144446  0.8554127    0.00000       Uiso       1.00
      H249          H  0.0098204  0.8554165  0.9144409    0.00000       Uiso       1.00
      C464          C  0.0584883  0.9322818  0.1846942    0.00000       Uiso       1.00
      C465          C  0.0697702  0.9338983  0.1732670    0.00000       Uiso       1.00
      C466          C  0.0600785  0.9374305  0.1503540    0.00000       Uiso       1.00
      C467          C  0.0373952  0.9338978  0.1732665    0.00000       Uiso       1.00
      C468          C  0.0276129  0.9372883  0.1504276    0.00000       Uiso       1.00
      C469          C  0.0387589  0.9392551  0.1383722    0.00000       Uiso       1.00
      H250          H  0.0042941  0.8731177  0.9312533    0.00000       Uiso       1.00
      C470          C  0.9711877  0.9711902  0.9711848    0.00000       Uiso       1.00
      H251          H  0.0279364  0.9325611  0.1823392    0.00000       Uiso       1.00
      H252          H  0.0869654  0.9325619  0.1823401    0.00000       Uiso       1.00
       S21          S  0.0007212  0.1363169  0.9402755    0.00000       Uiso       1.00
       O61          O  0.9939854  0.1134938  0.9436994    0.00000       Uiso       1.00
       O62          O  0.9853103  0.1457844  0.9207036    0.00000       Uiso       1.00
       O63          O  0.0016235  0.1387913  0.9600824    0.00000       Uiso       1.00
      H253          H  0.9873145  0.1313562  0.9615990    0.00000       Uiso       1.00
       S22          S  0.0758753  0.9402834  0.1363148    0.00000       Uiso       1.00
       O64          O  0.0632125  0.9437065  0.1134918    0.00000       Uiso       1.00
       O65          O  0.0811861  0.9207138  0.1457828    0.00000       Uiso       1.00
       O66          O  0.0972527  0.9600927  0.1387891    0.00000       Uiso       1.00
      H254          H  0.1056453  0.9616116  0.1313543    0.00000       Uiso       1.00
       S23          S  0.8060591  0.8665024  0.9416518    0.00000       Uiso       1.00
       O67          O  0.8288828  0.8791636  0.9483904    0.00000       Uiso       1.00
       O68          O  0.8037602  0.8466519  0.9408095    0.00000       Uiso       1.00
       O69          O  0.7958625  0.8607830  0.9582493    0.00000       Uiso       1.00
      H255          H  0.8032935  0.8523960  0.9725649    0.00000       Uiso       1.00
       S24          S  0.0020923  0.9416552  0.8664935    0.00000       Uiso       1.00
       O70          O  0.9986655  0.9483958  0.8791498    0.00000       Uiso       1.00
       O71          O  0.9836993  0.9408076  0.8466432    0.00000       Uiso       1.00
       O72          O  0.0231671  0.9582542  0.8607739    0.00000       Uiso       1.00
      H256          H  0.0216622  0.9725685  0.8523834    0.00000       Uiso       1.00
      C471          C  0.0286309  0.1136280  0.9432896    0.00000       Uiso       1.00
      C472          C  0.0055750  0.1033758  0.9349048    0.00000       Uiso       1.00
      C473          C  0.9960370  0.0803771  0.9387598    0.00000       Uiso       1.00
      C474          C  0.0418591  0.0999561  0.9556329    0.00000       Uiso       1.00
      C475          C  0.0325422  0.0769902  0.9594240    0.00000       Uiso       1.00
      C476          C  0.0095553  0.0671380  0.9510081    0.00000       Uiso       1.00
      H257          H  0.0594737  0.1070670  0.9626894    0.00000       Uiso       1.00
      H258          H  0.9949672  0.1133131  0.9250835    0.00000       Uiso       1.00
      C477          C  0.8287484  0.9140905  0.9137399    0.00000       Uiso       1.00
      C478          C  0.8424208  0.9286401  0.9005116    0.00000       Uiso       1.00
      C479          C  0.8653864  0.9384991  0.9098274    0.00000       Uiso       1.00
      C480          C  0.8389994  0.9096811  0.9367938    0.00000       Uiso       1.00
      C481          C  0.8619968  0.9192876  0.9463302    0.00000       Uiso       1.00
      C482          C  0.8752368  0.9337888  0.9328129    0.00000       Uiso       1.00
      H259          H  0.8290657  0.8989650  0.9474053    0.00000       Uiso       1.00
      H260          H  0.8353100  0.9320807  0.8828968    0.00000       Uiso       1.00
      C483          C  0.9990789  0.9137422  0.9140874    0.00000       Uiso       1.00
      C484          C  0.9867351  0.9005108  0.9286449    0.00000       Uiso       1.00
      C485          C  0.9829434  0.9098263  0.9385055    0.00000       Uiso       1.00
      C486          C  0.0074633  0.9367969  0.9096702    0.00000       Uiso       1.00
      C487          C  0.0036071  0.9463325  0.9192752    0.00000       Uiso       1.00
      C488          C  0.9913602  0.9328153  0.9337854    0.00000       Uiso       1.00
      H261          H  0.0172861  0.9474096  0.8989494    0.00000       Uiso       1.00
      H262          H  0.9796797  0.8828936  0.9320882    0.00000       Uiso       1.00
      C489          C  0.0282875  0.9432921  0.1136260    0.00000       Uiso       1.00
      C490          C  0.0326996  0.9349006  0.1033750    0.00000       Uiso       1.00
      C491          C  0.0230963  0.9387577  0.0803763    0.00000       Uiso       1.00
      C492          C  0.0137365  0.9556411  0.0999532    0.00000       Uiso       1.00
      C493          C  0.0038782  0.9594318  0.0769875    0.00000       Uiso       1.00
      C494          C  0.0085925  0.9510118  0.0671365    0.00000       Uiso       1.00
      H263          H  0.0102942  0.9627011  0.1070646    0.00000       Uiso       1.00
      H264          H  0.0434166  0.9250719  0.1133163    0.00000       Uiso       1.00
      C495          C  0.0277739  0.9306120  0.0702955    0.00000       Uiso       1.00
      C496          C  0.0184234  0.9347562  0.0474321    0.00000       Uiso       1.00
      C497          C  0.8720770  0.9146155  0.9692351    0.00000       Uiso       1.00
      C498          C  0.8949398  0.9239684  0.9786039    0.00000       Uiso       1.00
      H265          H  0.8622645  0.9035594  0.9799670    0.00000       Uiso       1.00
      H266          H  0.9021764  0.9198516  0.9963275    0.00000       Uiso       1.00
      H267          H  0.0388305  0.9211249  0.0801111    0.00000       Uiso       1.00
      H268          H  0.0225411  0.9283913  0.0401918    0.00000       Uiso       1.00
      C499          C  0.0000630  0.0439804  0.9549950    0.00000       Uiso       1.00
      C500          C  0.9770586  0.0340411  0.9469653    0.00000       Uiso       1.00
      C501          C  0.9676646  0.0109359  0.9515196    0.00000       Uiso       1.00
      C502          C  0.0135733  0.0307608  0.9673007    0.00000       Uiso       1.00
      C503          C  0.0040306  0.0077620  0.9714855    0.00000       Uiso       1.00
      C504          C  0.9809005  0.9971948  0.9636926    0.00000       Uiso       1.00
      H269          H  0.9445770  0.9778665  0.9277255    0.00000       Uiso       1.00
      H270          H  0.9963765  0.9924340  0.9424629    0.00000       Uiso       1.00
      C505          C  0.8983937  0.9434675  0.9423059    0.00000       Uiso       1.00
      C506          C  0.9116154  0.9578859  0.9287962    0.00000       Uiso       1.00
      C507          C  0.9346153  0.9671591  0.9383391    0.00000       Uiso       1.00
      C508          C  0.9083322  0.9384404  0.9653111    0.00000       Uiso       1.00
      C509          C  0.9314386  0.9475967  0.9747052    0.00000       Uiso       1.00
      C510          C  0.9451826  0.9623920  0.9614708    0.00000       Uiso       1.00
      H271          H  0.9499435  0.0038543  0.9459905    0.00000       Uiso       1.00
      H272          H  0.9644914  0.9813380  0.9978008    0.00000       Uiso       1.00
      C511          C  0.9873769  0.9423110  0.9434620    0.00000       Uiso       1.00
      C512          C  0.9750731  0.9288003  0.9578891    0.00000       Uiso       1.00
      C513          C  0.9708895  0.9383445  0.9671603    0.00000       Uiso       1.00
      C514          C  0.9954071  0.9653177  0.9384236    0.00000       Uiso       1.00
      C515          C  0.9908509  0.9747129  0.9475780    0.00000       Uiso       1.00
      C516          C  0.9786795  0.9614775  0.9623846    0.00000       Uiso       1.00
      H273          H  0.9998928  0.9459868  0.0038481    0.00000       Uiso       1.00
      H274          H  0.0146462  0.9978031  0.9813462    0.00000       Uiso       1.00
      C517          C  0.9989149  0.9549987  0.0439792    0.00000       Uiso       1.00
      C518          C  0.0039475  0.9469656  0.0340396    0.00000       Uiso       1.00
      C519          C  0.9947912  0.9515224  0.0109324    0.00000       Uiso       1.00
      C520          C  0.9844897  0.9673049  0.0307588    0.00000       Uiso       1.00
      C521          C  0.9752147  0.9714876  0.0077594    0.00000       Uiso       1.00
      C522          C  0.9799886  0.9636978  0.9971901    0.00000       Uiso       1.00
      H275          H  0.9610366  0.9277327  0.9778827    0.00000       Uiso       1.00
      H276          H  0.9385194  0.9424930  0.9924271    0.00000       Uiso       1.00
      C523          C  0.0076106  0.9786108  0.9239426    0.00000       Uiso       1.00
      C524          C  0.0117520  0.9692400  0.9145921    0.00000       Uiso       1.00
      C525          C  0.9668462  0.9059019  0.9625347    0.00000       Uiso       1.00
      C526          C  0.9707049  0.8965432  0.9529466    0.00000       Uiso       1.00
      C527          C  0.9637640  0.0474319  0.9347614    0.00000       Uiso       1.00
      C528          C  0.9731315  0.0702956  0.9306187    0.00000       Uiso       1.00
      C529          C  0.0364728  0.0407880  0.9755261    0.00000       Uiso       1.00
      C530          C  0.0458295  0.0635965  0.9716625    0.00000       Uiso       1.00
      C531          C  0.9798460  0.9755325  0.0407859    0.00000       Uiso       1.00
      C532          C  0.9894379  0.9716722  0.0635927    0.00000       Uiso       1.00
      C533          C  0.9015893  0.9625238  0.9058977    0.00000       Uiso       1.00
      C534          C  0.8787819  0.9529346  0.8965414    0.00000       Uiso       1.00
      H277          H  0.9114257  0.9734975  0.8951706    0.00000       Uiso       1.00
      H278          H  0.8716056  0.9567807  0.8788500    0.00000       Uiso       1.00
      H279          H  0.9640406  0.8788508  0.9567993    0.00000       Uiso       1.00
      H280          H  0.9572636  0.8951741  0.9735146    0.00000       Uiso       1.00
      H281          H  0.0139724  0.9963360  0.9198175    0.00000       Uiso       1.00
      H282          H  0.0212330  0.9799713  0.9035289    0.00000       Uiso       1.00
      H283          H  0.0635216  0.0707774  0.9783223    0.00000       Uiso       1.00
      H284          H  0.0472032  0.0309555  0.9851090    0.00000       Uiso       1.00
      H285          H  0.9460407  0.0401944  0.9284000    0.00000       Uiso       1.00
      H286          H  0.9624035  0.0801126  0.9211378    0.00000       Uiso       1.00
      H287          H  0.9855875  0.9783352  0.0707697    0.00000       Uiso       1.00
      H288          H  0.9688640  0.9851131  0.0309508    0.00000       Uiso       1.00
        B1          B  0.7326074  0.8725992  0.4586473    0.00000       Uiso       1.00
        B2          B  0.5986388  0.7386307  0.4586454    0.00000       Uiso       1.00
        B3          B  0.5986390  0.8725972  0.4586453    0.00000       Uiso       1.00
      C535          C  0.6620128  0.8283941  0.4571568    0.00000       Uiso       1.00
      C536          C  0.6999868  0.8477066  0.4575433    0.00000       Uiso       1.00
      H289          H  0.6830843  0.8152455  0.4572300    0.00000       Uiso       1.00
       O73          O  0.7199844  0.8500841  0.4582046    0.00000       Uiso       1.00
      C537          C  0.6815408  0.8289422  0.4573109    0.00000       Uiso       1.00
      C538          C  0.6235394  0.8092247  0.4571563    0.00000       Uiso       1.00
      C539          C  0.6052634  0.7712508  0.4575419    0.00000       Uiso       1.00
      H290          H  0.5893916  0.7881529  0.4572286    0.00000       Uiso       1.00
       O74          O  0.5883041  0.7512532  0.4582027    0.00000       Uiso       1.00
      C540          C  0.6047130  0.7896966  0.4573098    0.00000       Uiso       1.00
      C541          C  0.6428435  0.8476977  0.4571565    0.00000       Uiso       1.00
      C542          C  0.6235314  0.8659732  0.4575421    0.00000       Uiso       1.00
      H291          H  0.6559927  0.8818453  0.4572296    0.00000       Uiso       1.00
       O75          O  0.6211542  0.8829322  0.4582032    0.00000       Uiso       1.00
      C543          C  0.6422958  0.8665240  0.4573103    0.00000       Uiso       1.00
      C544          C  0.6428435  0.8092249  0.4571565    0.00000       Uiso       1.00
      C545          C  0.6235313  0.7712511  0.4575421    0.00000       Uiso       1.00
       O76          O  0.6211540  0.7512537  0.4582032    0.00000       Uiso       1.00
      H292          H  0.6559927  0.7881539  0.4572296    0.00000       Uiso       1.00
      C546          C  0.6422958  0.7896972  0.4573103    0.00000       Uiso       1.00
      C547          C  0.6620128  0.8476979  0.4571568    0.00000       Uiso       1.00
      C548          C  0.6999869  0.8659743  0.4575433    0.00000       Uiso       1.00
      H293          H  0.6830844  0.8818457  0.4572300    0.00000       Uiso       1.00
       O77          O  0.7199845  0.8829336  0.4582046    0.00000       Uiso       1.00
      C549          C  0.6815408  0.8665245  0.4573109    0.00000       Uiso       1.00
      C550          C  0.6235394  0.8283936  0.4571563    0.00000       Uiso       1.00
      C551          C  0.6052635  0.8477052  0.4575419    0.00000       Uiso       1.00
      H294          H  0.5893916  0.8152441  0.4572286    0.00000       Uiso       1.00
       O78          O  0.5883042  0.8500822  0.4582027    0.00000       Uiso       1.00
      C552          C  0.6047130  0.8289411  0.4573098    0.00000       Uiso       1.00
        B4          B  0.5986391  0.4586488  0.8725936    0.00000       Uiso       1.00
        B5          B  0.5986390  0.4586487  0.7386273    0.00000       Uiso       1.00
        B6          B  0.7326076  0.4586508  0.8725955    0.00000       Uiso       1.00
      C553          C  0.6235396  0.4571597  0.8283901    0.00000       Uiso       1.00
      C554          C  0.6052637  0.4575453  0.8477017    0.00000       Uiso       1.00
      H295          H  0.5893918  0.4572321  0.8152406    0.00000       Uiso       1.00
       O79          O  0.5883044  0.4582062  0.8500786    0.00000       Uiso       1.00
      C555          C  0.6047131  0.4573133  0.8289375    0.00000       Uiso       1.00
      C556          C  0.6428437  0.4571600  0.8092214    0.00000       Uiso       1.00
      C557          C  0.6235315  0.4575455  0.7712476    0.00000       Uiso       1.00
      H296          H  0.6559928  0.4572330  0.7881504    0.00000       Uiso       1.00
       O80          O  0.6211542  0.4582066  0.7512503    0.00000       Uiso       1.00
      C558          C  0.6422960  0.4573137  0.7896937    0.00000       Uiso       1.00
      C559          C  0.6620129  0.4571603  0.8476944    0.00000       Uiso       1.00
      C560          C  0.6999871  0.4575467  0.8659707    0.00000       Uiso       1.00
      H297          H  0.6830845  0.4572335  0.8818420    0.00000       Uiso       1.00
       O81          O  0.7199847  0.4582081  0.8829299    0.00000       Uiso       1.00
      C561          C  0.6815410  0.4573144  0.8665209    0.00000       Uiso       1.00
      C562          C  0.6235396  0.4571597  0.8092211    0.00000       Uiso       1.00
      C563          C  0.6052635  0.4575453  0.7712474    0.00000       Uiso       1.00
       O82          O  0.5883043  0.4582061  0.7512498    0.00000       Uiso       1.00
      H298          H  0.5893918  0.4572321  0.7881494    0.00000       Uiso       1.00
      C564          C  0.6047131  0.4573132  0.7896931    0.00000       Uiso       1.00
      C565          C  0.6428438  0.4571600  0.8476941    0.00000       Uiso       1.00
      C566          C  0.6235316  0.4575456  0.8659696    0.00000       Uiso       1.00
      H299          H  0.6559929  0.4572330  0.8818416    0.00000       Uiso       1.00
       O83          O  0.6211544  0.4582067  0.8829286    0.00000       Uiso       1.00
      C567          C  0.6422960  0.4573138  0.8665203    0.00000       Uiso       1.00
      C568          C  0.6620129  0.4571603  0.8283907    0.00000       Uiso       1.00
      C569          C  0.6999871  0.4575467  0.8477030    0.00000       Uiso       1.00
      H300          H  0.6830845  0.4572334  0.8152420    0.00000       Uiso       1.00
       O84          O  0.7199847  0.4582081  0.8500806    0.00000       Uiso       1.00
      C570          C  0.6815410  0.4573143  0.8289387    0.00000       Uiso       1.00
      C571          C  0.5429850  0.3949648  0.3768087    0.00000       Uiso       1.00
      C572          C  0.5441138  0.3959559  0.3580776    0.00000       Uiso       1.00
      C573          C  0.5463077  0.4155279  0.3400997    0.00000       Uiso       1.00
      C574          C  0.5462978  0.4159194  0.3210497    0.00000       Uiso       1.00
      C575          C  0.5428435  0.3964256  0.3190514    0.00000       Uiso       1.00
      C576          C  0.5403324  0.3768103  0.3372529    0.00000       Uiso       1.00
      C577          C  0.5424920  0.3765102  0.3573432    0.00000       Uiso       1.00
       O85          O  0.5434582  0.4122178  0.3798144    0.00000       Uiso       1.00
      H301          H  0.5480515  0.4305547  0.3409007    0.00000       Uiso       1.00
      H302          H  0.5487787  0.4315919  0.3079386    0.00000       Uiso       1.00
      H303          H  0.5352728  0.3613805  0.3353639    0.00000       Uiso       1.00
      C578          C  0.5430429  0.2424732  0.3949649    0.00000       Uiso       1.00
      C579          C  0.5441849  0.2613477  0.3959585    0.00000       Uiso       1.00
      C580          C  0.5463678  0.2619481  0.4155260    0.00000       Uiso       1.00
      C581          C  0.5463516  0.2805968  0.4159119    0.00000       Uiso       1.00
      C582          C  0.5428959  0.2986320  0.3964161    0.00000       Uiso       1.00
      C583          C  0.5404066  0.2975362  0.3768082    0.00000       Uiso       1.00
      C584          C  0.5425753  0.2799070  0.3765153    0.00000       Uiso       1.00
       O86          O  0.5434863  0.2226791  0.4122124    0.00000       Uiso       1.00
      H304          H  0.5480971  0.2478626  0.4305517    0.00000       Uiso       1.00
      H305          H  0.5488216  0.2805127  0.4315818    0.00000       Uiso       1.00
      H306          H  0.5353487  0.3097883  0.3613742    0.00000       Uiso       1.00
      C585          C  0.5430229  0.3768386  0.2424586    0.00000       Uiso       1.00
      C586          C  0.5441818  0.3581215  0.2613364    0.00000       Uiso       1.00
      C587          C  0.5463954  0.3401538  0.2619400    0.00000       Uiso       1.00
      C588          C  0.5464066  0.3211090  0.2805960    0.00000       Uiso       1.00
      C589          C  0.5429540  0.3191082  0.2986363    0.00000       Uiso       1.00
      C590          C  0.5404352  0.3373072  0.2975386    0.00000       Uiso       1.00
      C591          C  0.5425665  0.3573902  0.2798957    0.00000       Uiso       1.00
       O87          O  0.5434922  0.3798378  0.2226744    0.00000       Uiso       1.00
      H307          H  0.5481272  0.3409586  0.2478463    0.00000       Uiso       1.00
      H308          H  0.5488926  0.3080010  0.2805150    0.00000       Uiso       1.00
      H309          H  0.5353834  0.3354200  0.3098025    0.00000       Uiso       1.00
      C592          C  0.5401686  0.3941547  0.2415619    0.00000       Uiso       1.00
      C593          C  0.5396456  0.3945686  0.2599120    0.00000       Uiso       1.00
      C594          C  0.5372558  0.4125507  0.2590786    0.00000       Uiso       1.00
      C595          C  0.5376084  0.4130193  0.2778689    0.00000       Uiso       1.00
      C596          C  0.5416322  0.3960649  0.2982944    0.00000       Uiso       1.00
      C597          C  0.5444959  0.3783406  0.2988651    0.00000       Uiso       1.00
      C598          C  0.5419344  0.3764526  0.2797030    0.00000       Uiso       1.00
       O88          O  0.5385414  0.4106575  0.2211224    0.00000       Uiso       1.00
      H310          H  0.5350270  0.4262291  0.2437407    0.00000       Uiso       1.00
      H311          H  0.5348800  0.4268794  0.2761495    0.00000       Uiso       1.00
      H312          H  0.5500244  0.3665432  0.3145113    0.00000       Uiso       1.00
      C599          C  0.5402262  0.2415896  0.3756984    0.00000       Uiso       1.00
      C600          C  0.5397238  0.2599474  0.3564181    0.00000       Uiso       1.00
      C601          C  0.5373813  0.2591325  0.3368894    0.00000       Uiso       1.00
      C602          C  0.5377485  0.2779291  0.3179909    0.00000       Uiso       1.00
      C603          C  0.5417354  0.2983452  0.3185383    0.00000       Uiso       1.00
      C604          C  0.5445549  0.2988968  0.3385476    0.00000       Uiso       1.00
      C605          C  0.5419824  0.2797278  0.3570267    0.00000       Uiso       1.00
       O89          O  0.5386057  0.2211532  0.3780084    0.00000       Uiso       1.00
      H313          H  0.5351681  0.2438006  0.3363183    0.00000       Uiso       1.00
      H314          H  0.5350530  0.2762170  0.3031301    0.00000       Uiso       1.00
      H315          H  0.5500674  0.3145339  0.3402381    0.00000       Uiso       1.00
      C606          C  0.5401663  0.3756953  0.3941401    0.00000       Uiso       1.00
      C607          C  0.5396491  0.3564137  0.3945507    0.00000       Uiso       1.00
      C608          C  0.5373130  0.3368892  0.4125547    0.00000       Uiso       1.00
      C609          C  0.5376834  0.3179903  0.4130285    0.00000       Uiso       1.00
      C610          C  0.5416589  0.3185318  0.3960460    0.00000       Uiso       1.00
      C611          C  0.5444627  0.3385373  0.3782943    0.00000       Uiso       1.00
      C612          C  0.5418953  0.3570189  0.3764149    0.00000       Uiso       1.00
       O90          O  0.5385698  0.3780066  0.4106596    0.00000       Uiso       1.00
      H316          H  0.5351086  0.3363267  0.4262459    0.00000       Uiso       1.00
      H317          H  0.5350022  0.3031360  0.4269153    0.00000       Uiso       1.00
      H318          H  0.5499640  0.3402239  0.3664711    0.00000       Uiso       1.00
        B7          B  0.5406491  0.4012550  0.4013715    0.00000       Uiso       1.00
        B8          B  0.5406656  0.2092675  0.4012519    0.00000       Uiso       1.00
        B9          B  0.5406449  0.4013765  0.2092530    0.00000       Uiso       1.00
      C613          C  0.2287849  0.3768073  0.3949571    0.00000       Uiso       1.00
      C614          C  0.2099159  0.3580759  0.3959480    0.00000       Uiso       1.00
      C615          C  0.2093161  0.3400979  0.4155199    0.00000       Uiso       1.00
      C616          C  0.1906671  0.3210476  0.4159112    0.00000       Uiso       1.00
      C617          C  0.1726291  0.3190491  0.3964172    0.00000       Uiso       1.00
      C618          C  0.1737264  0.3372506  0.3768020    0.00000       Uiso       1.00
      C619          C  0.1913573  0.3573412  0.3765021    0.00000       Uiso       1.00
       O91          O  0.2485709  0.3798133  0.4122105    0.00000       Uiso       1.00
      H319          H  0.2234003  0.3408991  0.4305468    0.00000       Uiso       1.00
      H320          H  0.1907476  0.3079365  0.4315836    0.00000       Uiso       1.00
      H321          H  0.1614671  0.3353615  0.3613721    0.00000       Uiso       1.00
      C620          C  0.0943895  0.3949614  0.2424638    0.00000       Uiso       1.00
      C621          C  0.1131161  0.3959554  0.2613386    0.00000       Uiso       1.00
      C622          C  0.1311014  0.4155232  0.2619393    0.00000       Uiso       1.00
      C623          C  0.1501523  0.4159093  0.2805881    0.00000       Uiso       1.00
      C624          C  0.1521475  0.3964136  0.2986234    0.00000       Uiso       1.00
      C625          C  0.1339328  0.3768053  0.2975274    0.00000       Uiso       1.00
      C626          C  0.1138417  0.3765122  0.2798979    0.00000       Uiso       1.00
       O92          O  0.0913995  0.4122089  0.2226697    0.00000       Uiso       1.00
      H322          H  0.1303122  0.4305488  0.2478537    0.00000       Uiso       1.00
      H323          H  0.1632684  0.4315793  0.2805042    0.00000       Uiso       1.00
      H324          H  0.1358090  0.3613715  0.3097796    0.00000       Uiso       1.00
      C627          C  0.0762683  0.2424548  0.3768289    0.00000       Uiso       1.00
      C628          C  0.0752701  0.2613325  0.3581118    0.00000       Uiso       1.00
      C629          C  0.0556919  0.2619358  0.3401437    0.00000       Uiso       1.00
      C630          C  0.0552920  0.2805918  0.3210990    0.00000       Uiso       1.00
      C631          C  0.0747845  0.2986326  0.3190985    0.00000       Uiso       1.00
      C632          C  0.0944050  0.2975351  0.3372979    0.00000       Uiso       1.00
      C633          C  0.0947137  0.2798922  0.3573807    0.00000       Uiso       1.00
       O93          O  0.0590138  0.2226703  0.3798279    0.00000       Uiso       1.00
      H325          H  0.0406711  0.2478419  0.3409484    0.00000       Uiso       1.00
      H326          H  0.0396166  0.2805105  0.3079907    0.00000       Uiso       1.00
      H327          H  0.1098338  0.3097994  0.3354109    0.00000       Uiso       1.00
      C634          C  0.0955423  0.2415584  0.3941453    0.00000       Uiso       1.00
      C635          C  0.1148296  0.2599088  0.3945595    0.00000       Uiso       1.00
      C636          C  0.1343684  0.2590757  0.4125419    0.00000       Uiso       1.00
      C637          C  0.1532751  0.2778663  0.4130107    0.00000       Uiso       1.00
      C638          C  0.1527223  0.2982918  0.3960562    0.00000       Uiso       1.00
      C639          C  0.1327047  0.2988622  0.3783316    0.00000       Uiso       1.00
      C640          C  0.1142159  0.2796998  0.3764434    0.00000       Uiso       1.00
       O94          O  0.0932329  0.2211189  0.4106481    0.00000       Uiso       1.00
      H328          H  0.1349379  0.2437379  0.4262203    0.00000       Uiso       1.00
      H329          H  0.1681444  0.2761471  0.4268711    0.00000       Uiso       1.00
      H330          H  0.1310249  0.3145082  0.3665342    0.00000       Uiso       1.00
      C641          C  0.0770560  0.3756948  0.2415801    0.00000       Uiso       1.00
      C642          C  0.0766359  0.3564144  0.2599379    0.00000       Uiso       1.00
      C643          C  0.0586345  0.3368854  0.2591228    0.00000       Uiso       1.00
      C644          C  0.0581653  0.3179869  0.2779193    0.00000       Uiso       1.00
      C645          C  0.0751422  0.3185346  0.2983356    0.00000       Uiso       1.00
      C646          C  0.0928837  0.3385441  0.2988873    0.00000       Uiso       1.00
      C647          C  0.0947665  0.3570232  0.2797184    0.00000       Uiso       1.00
       O95          O  0.0605498  0.3780045  0.2211435    0.00000       Uiso       1.00
      H331          H  0.0449445  0.3363142  0.2437907    0.00000       Uiso       1.00
      H332          H  0.0442877  0.3031259  0.2762070    0.00000       Uiso       1.00
      H333          H  0.1046991  0.3402347  0.3145245    0.00000       Uiso       1.00
      C648          C  0.2296658  0.3941388  0.3756877    0.00000       Uiso       1.00
      C649          C  0.2113117  0.3945491  0.3564060    0.00000       Uiso       1.00
      C650          C  0.2121272  0.4125531  0.3368815    0.00000       Uiso       1.00
      C651          C  0.1933315  0.4130267  0.3179823    0.00000       Uiso       1.00
      C652          C  0.1729146  0.3960437  0.3185236    0.00000       Uiso       1.00
      C653          C  0.1723646  0.3782921  0.3385290    0.00000       Uiso       1.00
      C654          C  0.1915344  0.3764130  0.3570108    0.00000       Uiso       1.00
       O96          O  0.2500934  0.4106586  0.3779994    0.00000       Uiso       1.00
      H334          H  0.2274607  0.4262446  0.3363193    0.00000       Uiso       1.00
      H335          H  0.1950452  0.4269135  0.3031281    0.00000       Uiso       1.00
      H336          H  0.1567263  0.3664685  0.3402153    0.00000       Uiso       1.00
       B10          B  0.2619745  0.4013706  0.4012479    0.00000       Uiso       1.00
       B11          B  0.0698479  0.4012481  0.2092579    0.00000       Uiso       1.00
       B12          B  0.0699785  0.2092491  0.4013667    0.00000       Uiso       1.00
       B13          B  0.0125931  0.7386367  0.8725997    0.00000       Uiso       1.00
       B14          B  0.0125932  0.8726033  0.7386332    0.00000       Uiso       1.00
       B15          B  0.0125933  0.8726034  0.8725997    0.00000       Uiso       1.00
      C655          C  0.0140827  0.8092304  0.8283957    0.00000       Uiso       1.00
      C656          C  0.0136968  0.7712569  0.8477076    0.00000       Uiso       1.00
      H337          H  0.0140098  0.7881592  0.8152468    0.00000       Uiso       1.00
       O97          O  0.0130357  0.7512596  0.8500848    0.00000       Uiso       1.00
      C657          C  0.0139288  0.7897026  0.8289434    0.00000       Uiso       1.00
      C658          C  0.0140827  0.8477032  0.8092268    0.00000       Uiso       1.00
      C659          C  0.0136968  0.8659789  0.7712533    0.00000       Uiso       1.00
      H338          H  0.0140099  0.8818505  0.7881556    0.00000       Uiso       1.00
       O98          O  0.0130357  0.8829379  0.7512560    0.00000       Uiso       1.00
      C660          C  0.0139289  0.8665295  0.7896990    0.00000       Uiso       1.00
      C661          C  0.0140827  0.8283994  0.8476995    0.00000       Uiso       1.00
      C662          C  0.0136969  0.8477113  0.8659753    0.00000       Uiso       1.00
      H339          H  0.0140098  0.8152504  0.8818468    0.00000       Uiso       1.00
       O99          O  0.0130358  0.8500885  0.8829342    0.00000       Uiso       1.00
      C663          C  0.0139289  0.8289472  0.8665257    0.00000       Uiso       1.00
      C664          C  0.0140827  0.8283994  0.8092268    0.00000       Uiso       1.00
      C665          C  0.0136968  0.8477113  0.7712533    0.00000       Uiso       1.00
      O100          O  0.0130357  0.8500885  0.7512560    0.00000       Uiso       1.00
      H340          H  0.0140098  0.8152504  0.7881556    0.00000       Uiso       1.00
      C666          C  0.0139289  0.8289471  0.7896990    0.00000       Uiso       1.00
      C667          C  0.0140827  0.8092304  0.8476995    0.00000       Uiso       1.00
      C668          C  0.0136968  0.7712569  0.8659753    0.00000       Uiso       1.00
      H341          H  0.0140098  0.7881592  0.8818468    0.00000       Uiso       1.00
      O101          O  0.0130357  0.7512596  0.8829342    0.00000       Uiso       1.00
      C669          C  0.0139289  0.7897026  0.8665257    0.00000       Uiso       1.00
      C670          C  0.0140827  0.8477032  0.8283957    0.00000       Uiso       1.00
      C671          C  0.0136969  0.8659790  0.8477076    0.00000       Uiso       1.00
      H342          H  0.0140099  0.8818505  0.8152468    0.00000       Uiso       1.00
      O102          O  0.0130358  0.8829379  0.8500848    0.00000       Uiso       1.00
      C672          C  0.0139289  0.8665293  0.8289434    0.00000       Uiso       1.00
      C673          C  0.0944299  0.9282570  0.3949697    0.00000       Uiso       1.00
      C674          C  0.1131613  0.9271285  0.3959611    0.00000       Uiso       1.00
      C675          C  0.1311395  0.9249350  0.4155333    0.00000       Uiso       1.00
      C676          C  0.1501898  0.9249450  0.4159251    0.00000       Uiso       1.00
      C677          C  0.1521881  0.9283994  0.3964314    0.00000       Uiso       1.00
      C678          C  0.1339863  0.9309101  0.3768159    0.00000       Uiso       1.00
      C679          C  0.1138956  0.9287502  0.3765155    0.00000       Uiso       1.00
      O103          O  0.0914242  0.9277838  0.4122227    0.00000       Uiso       1.00
      H343          H  0.1303385  0.9231911  0.4305600    0.00000       Uiso       1.00
      H344          H  0.1633011  0.9224643  0.4315977    0.00000       Uiso       1.00
      H345          H  0.1358752  0.9359695  0.3613862    0.00000       Uiso       1.00
      C680          C  0.0762732  0.9281986  0.2424781    0.00000       Uiso       1.00
      C681          C  0.0752796  0.9270567  0.2613526    0.00000       Uiso       1.00
      C682          C  0.0557118  0.9248735  0.2619526    0.00000       Uiso       1.00
      C683          C  0.0553261  0.9248898  0.2806012    0.00000       Uiso       1.00
      C684          C  0.0748221  0.9283457  0.2986368    0.00000       Uiso       1.00
      C685          C  0.0944303  0.9308352  0.2975413    0.00000       Uiso       1.00
      C686          C  0.0947232  0.9286665  0.2799121    0.00000       Uiso       1.00
      O104          O  0.0590255  0.9277550  0.2226838    0.00000       Uiso       1.00
      H346          H  0.0406859  0.9231440  0.2478669    0.00000       Uiso       1.00
      H347          H  0.0396559  0.9224196  0.2805169    0.00000       Uiso       1.00
      H348          H  0.1098644  0.9358933  0.3097937    0.00000       Uiso       1.00
      C687          C  0.2287820  0.9282209  0.3768456    0.00000       Uiso       1.00
      C688          C  0.2099040  0.9270617  0.3581282    0.00000       Uiso       1.00
      C689          C  0.2093004  0.9248481  0.3401605    0.00000       Uiso       1.00
      C690          C  0.1906441  0.9248366  0.3211154    0.00000       Uiso       1.00
      C691          C  0.1726034  0.9282888  0.3191144    0.00000       Uiso       1.00
      C692          C  0.1737012  0.9308078  0.3373135    0.00000       Uiso       1.00
      C693          C  0.1913444  0.9286767  0.3573966    0.00000       Uiso       1.00
      O105          O  0.2485666  0.9277518  0.3798451    0.00000       Uiso       1.00
      H349          H  0.2233943  0.9231166  0.3409655    0.00000       Uiso       1.00
      H350          H  0.1907251  0.9223505  0.3080074    0.00000       Uiso       1.00
      H351          H  0.1614369  0.9358593  0.3354261    0.00000       Uiso       1.00
      C694          C  0.2296788  0.9310753  0.3941617    0.00000       Uiso       1.00
      C695          C  0.2113284  0.9315979  0.3945754    0.00000       Uiso       1.00
      C696          C  0.2121618  0.9339877  0.4125575    0.00000       Uiso       1.00
      C697          C  0.1933712  0.9336349  0.4130258    0.00000       Uiso       1.00
      C698          C  0.1729454  0.9296108  0.3960710    0.00000       Uiso       1.00
      C699          C  0.1723746  0.9267471  0.3783467    0.00000       Uiso       1.00
      C700          C  0.1915371  0.9293089  0.3764590    0.00000       Uiso       1.00
      O106          O  0.2501185  0.9327026  0.4106649    0.00000       Uiso       1.00
      H352          H  0.2274998  0.9362167  0.4262362    0.00000       Uiso       1.00
      H353          H  0.1950906  0.9363633  0.4268860    0.00000       Uiso       1.00
      H354          H  0.1567283  0.9212184  0.3665491    0.00000       Uiso       1.00
      C701          C  0.0955400  0.9310154  0.2415949    0.00000       Uiso       1.00
      C702          C  0.1148206  0.9315183  0.2599530    0.00000       Uiso       1.00
      C703          C  0.1343496  0.9338610  0.2591384    0.00000       Uiso       1.00
      C704          C  0.1532484  0.9334940  0.2779351    0.00000       Uiso       1.00
      C705          C  0.1527011  0.9295072  0.2983512    0.00000       Uiso       1.00
      C706          C  0.1326915  0.9266875  0.2989024    0.00000       Uiso       1.00
      C707          C  0.1142121  0.9292597  0.2797332    0.00000       Uiso       1.00
      O107          O  0.0932300  0.9326360  0.2211584    0.00000       Uiso       1.00
      H355          H  0.1349206  0.9360741  0.2438065    0.00000       Uiso       1.00
      H356          H  0.1681094  0.9361897  0.2762233    0.00000       Uiso       1.00
      H357          H  0.1310010  0.9211751  0.3145394    0.00000       Uiso       1.00
      C708          C  0.0770981  0.9310755  0.3757000    0.00000       Uiso       1.00
      C709          C  0.0766875  0.9315926  0.3564185    0.00000       Uiso       1.00
      C710          C  0.0586832  0.9339283  0.3368938    0.00000       Uiso       1.00
      C711          C  0.0582093  0.9335579  0.3179949    0.00000       Uiso       1.00
      C712          C  0.0751922  0.9295827  0.3185366    0.00000       Uiso       1.00
      C713          C  0.0929442  0.9267792  0.3385423    0.00000       Uiso       1.00
      C714          C  0.0948236  0.9293466  0.3570239    0.00000       Uiso       1.00
      O108          O  0.0605784  0.9326717  0.3780112    0.00000       Uiso       1.00
      H358          H  0.0449918  0.9361326  0.3363311    0.00000       Uiso       1.00
      H359          H  0.0443223  0.9362388  0.3031404    0.00000       Uiso       1.00
      H360          H  0.1047677  0.9212781  0.3402290    0.00000       Uiso       1.00
       B16          B  0.0698667  0.9305927  0.4012596    0.00000       Uiso       1.00
       B17          B  0.0699861  0.9305758  0.2092723    0.00000       Uiso       1.00
       B18          B  0.2619882  0.9305994  0.4013840    0.00000       Uiso       1.00
       B19          B  0.7326080  0.8725993  0.8725955    0.00000       Uiso       1.00
       B20          B  0.5986394  0.8725973  0.7386273    0.00000       Uiso       1.00
       B21          B  0.5986394  0.7386308  0.8725936    0.00000       Uiso       1.00
      C715          C  0.6620132  0.8476981  0.8283906    0.00000       Uiso       1.00
      C716          C  0.6999874  0.8659745  0.8477030    0.00000       Uiso       1.00
      H361          H  0.6830848  0.8818457  0.8152419    0.00000       Uiso       1.00
      O109          O  0.7199851  0.8829337  0.8500805    0.00000       Uiso       1.00
      C717          C  0.6815413  0.8665246  0.8289387    0.00000       Uiso       1.00
      C718          C  0.6235400  0.8283938  0.8092211    0.00000       Uiso       1.00
      C719          C  0.6052639  0.8477053  0.7712474    0.00000       Uiso       1.00
      H362          H  0.5893921  0.8152443  0.7881494    0.00000       Uiso       1.00
      O110          O  0.5883047  0.8500824  0.7512498    0.00000       Uiso       1.00
      C720          C  0.6047134  0.8289412  0.7896931    0.00000       Uiso       1.00
      C721          C  0.6428441  0.8092251  0.8476941    0.00000       Uiso       1.00
      C722          C  0.6235319  0.7712513  0.8659696    0.00000       Uiso       1.00
      H363          H  0.6559932  0.7881540  0.8818416    0.00000       Uiso       1.00
      O111          O  0.6211546  0.7512539  0.8829285    0.00000       Uiso       1.00
      C723          C  0.6422963  0.7896973  0.8665203    0.00000       Uiso       1.00
      C724          C  0.6428441  0.8476978  0.8092214    0.00000       Uiso       1.00
      C725          C  0.6235319  0.8659733  0.7712476    0.00000       Uiso       1.00
      O112          O  0.6211546  0.8829322  0.7512503    0.00000       Uiso       1.00
      H364          H  0.6559932  0.8818454  0.7881504    0.00000       Uiso       1.00
      C726          C  0.6422963  0.8665240  0.7896937    0.00000       Uiso       1.00
      C727          C  0.6620133  0.8283944  0.8476943    0.00000       Uiso       1.00
      C728          C  0.6999875  0.8477068  0.8659707    0.00000       Uiso       1.00
      H365          H  0.6830849  0.8152457  0.8818420    0.00000       Uiso       1.00
      O113          O  0.7199851  0.8500844  0.8829299    0.00000       Uiso       1.00
      C729          C  0.6815414  0.8289424  0.8665209    0.00000       Uiso       1.00
      C730          C  0.6235400  0.8092248  0.8283900    0.00000       Uiso       1.00
      C731          C  0.6052639  0.7712510  0.8477017    0.00000       Uiso       1.00
      H366          H  0.5893921  0.7881531  0.8152406    0.00000       Uiso       1.00
      O114          O  0.5883047  0.7512534  0.8500786    0.00000       Uiso       1.00
      C732          C  0.6047135  0.7896968  0.8289375    0.00000       Uiso       1.00
      C733          C  0.2287857  0.3949606  0.9282408    0.00000       Uiso       1.00
      C734          C  0.2099166  0.3959515  0.9271117    0.00000       Uiso       1.00
      C735          C  0.2093168  0.4155234  0.9249179    0.00000       Uiso       1.00
      C736          C  0.1906678  0.4159147  0.9249275    0.00000       Uiso       1.00
      C737          C  0.1726299  0.3964207  0.9283816    0.00000       Uiso       1.00
      C738          C  0.1737271  0.3768054  0.9308925    0.00000       Uiso       1.00
      C739          C  0.1913580  0.3765055  0.9287333    0.00000       Uiso       1.00
      O115          O  0.2485716  0.4122140  0.9277680    0.00000       Uiso       1.00
      H367          H  0.2234010  0.4305503  0.9231744    0.00000       Uiso       1.00
      H368          H  0.1907484  0.4315871  0.9224467    0.00000       Uiso       1.00
      H369          H  0.1614678  0.3613755  0.9359518    0.00000       Uiso       1.00
      C740          C  0.0943903  0.2424671  0.9281809    0.00000       Uiso       1.00
      C741          C  0.1131168  0.2613419  0.9270393    0.00000       Uiso       1.00
      C742          C  0.1311021  0.2619425  0.9248567    0.00000       Uiso       1.00
      C743          C  0.1501530  0.2805914  0.9248732    0.00000       Uiso       1.00
      C744          C  0.1521483  0.2986267  0.9283288    0.00000       Uiso       1.00
      C745          C  0.1339335  0.2975307  0.9308178    0.00000       Uiso       1.00
      C746          C  0.1138425  0.2799012  0.9286488    0.00000       Uiso       1.00
      O116          O  0.0914002  0.2226729  0.9277375    0.00000       Uiso       1.00
      H370          H  0.1303128  0.2478569  0.9231274    0.00000       Uiso       1.00
      H371          H  0.1632690  0.2805075  0.9224034    0.00000       Uiso       1.00
      H372          H  0.1358097  0.3097829  0.9358757    0.00000       Uiso       1.00
      C747          C  0.0762691  0.3768323  0.9282006    0.00000       Uiso       1.00
      C748          C  0.0752709  0.3581152  0.9270417    0.00000       Uiso       1.00
      C749          C  0.0556928  0.3401471  0.9248278    0.00000       Uiso       1.00
      C750          C  0.0552928  0.3211023  0.9248167    0.00000       Uiso       1.00
      C751          C  0.0747853  0.3191018  0.9282694    0.00000       Uiso       1.00
      C752          C  0.0944058  0.3373013  0.9307886    0.00000       Uiso       1.00
      C753          C  0.0947145  0.3573841  0.9286572    0.00000       Uiso       1.00
      O117          O  0.0590146  0.3798314  0.9277310    0.00000       Uiso       1.00
      H373          H  0.0406720  0.3409518  0.9230958    0.00000       Uiso       1.00
      H374          H  0.0396175  0.3079940  0.9223304    0.00000       Uiso       1.00
      H375          H  0.1098346  0.3354142  0.9358405    0.00000       Uiso       1.00
      C754          C  0.0955432  0.3941487  0.9310552    0.00000       Uiso       1.00
      C755          C  0.1148304  0.3945629  0.9315784    0.00000       Uiso       1.00
      C756          C  0.1343693  0.4125454  0.9339685    0.00000       Uiso       1.00
      C757          C  0.1532759  0.4130142  0.9336162    0.00000       Uiso       1.00
      C758          C  0.1527231  0.3960597  0.9295924    0.00000       Uiso       1.00
      C759          C  0.1327055  0.3783351  0.9267284    0.00000       Uiso       1.00
      C760          C  0.1142167  0.3764469  0.9292897    0.00000       Uiso       1.00
      O118          O  0.0932337  0.4106516  0.9326823    0.00000       Uiso       1.00
      H376          H  0.1349387  0.4262239  0.9361972    0.00000       Uiso       1.00
      H377          H  0.1681452  0.4268746  0.9363447    0.00000       Uiso       1.00
      H378          H  0.1310257  0.3665376  0.9212000    0.00000       Uiso       1.00
      C761          C  0.0770567  0.2415833  0.9309973    0.00000       Uiso       1.00
      C762          C  0.0766367  0.2599412  0.9314998    0.00000       Uiso       1.00
      C763          C  0.0586353  0.2591260  0.9338419    0.00000       Uiso       1.00
      C764          C  0.0581661  0.2779226  0.9334747    0.00000       Uiso       1.00
      C765          C  0.0751429  0.2983389  0.9294880    0.00000       Uiso       1.00
      C766          C  0.0928845  0.2988907  0.9266688    0.00000       Uiso       1.00
      C767          C  0.0947672  0.2797217  0.9292414    0.00000       Uiso       1.00
      O119          O  0.0605505  0.2211467  0.9326175    0.00000       Uiso       1.00
      H379          H  0.0449453  0.2437939  0.9360548    0.00000       Uiso       1.00
      H380          H  0.0442885  0.2762103  0.9361699    0.00000       Uiso       1.00
      H381          H  0.1046999  0.3145279  0.9211567    0.00000       Uiso       1.00
      C768          C  0.2296665  0.3756912  0.9310596    0.00000       Uiso       1.00
      C769          C  0.2113124  0.3564093  0.9315764    0.00000       Uiso       1.00
      C770          C  0.2121279  0.3368849  0.9339125    0.00000       Uiso       1.00
      C771          C  0.1933322  0.3179857  0.9335419    0.00000       Uiso       1.00
      C772          C  0.1729153  0.3185269  0.9295661    0.00000       Uiso       1.00
      C773          C  0.1723653  0.3385323  0.9267623    0.00000       Uiso       1.00
      C774          C  0.1915351  0.3570142  0.9293299    0.00000       Uiso       1.00
      O120          O  0.2500941  0.3780028  0.9326563    0.00000       Uiso       1.00
      H382          H  0.2274614  0.3363226  0.9361171    0.00000       Uiso       1.00
      H383          H  0.1950459  0.3031315  0.9362230    0.00000       Uiso       1.00
      H384          H  0.1567270  0.3402186  0.9212608    0.00000       Uiso       1.00
       B22          B  0.2619752  0.4012513  0.9305773    0.00000       Uiso       1.00
       B23          B  0.0698486  0.2092610  0.9305578    0.00000       Uiso       1.00
       B24          B  0.0699793  0.4013702  0.9305785    0.00000       Uiso       1.00
