data_103
_audit_creation_date              0000-00-00
_audit_creation_method            'LanYouShi'
_symmetry_space_group_name_H-M    'P1'
_cell_length_a                    74.4260025
_cell_length_b                    74.4260025
_cell_length_c                    74.4260025
_cell_angle_alpha                 120.0000000
_cell_angle_beta                  60.0000000
_cell_angle_gamma                 120.0000000
loop_
_atom_site_label
_atom_site_type_symbol
_atom_site_fract_x
_atom_site_fract_y
_atom_site_fract_z
_atom_site_U_iso_or_equiv
_atom_site_adp_type
_atom_site_occupancy
        C1          C  0.2865116  0.4127177  0.5388983    0.00000       Uiso       1.00
        C2          C  0.2979390  0.4014360  0.5372820    0.00000       Uiso       1.00
        C3          C  0.3208519  0.4111275  0.5337494    0.00000       Uiso       1.00
        C4          C  0.2979390  0.4338105  0.5372820    0.00000       Uiso       1.00
        C5          C  0.3207780  0.4435923  0.5338906    0.00000       Uiso       1.00
        C6          C  0.3328339  0.4324464  0.5319238    0.00000       Uiso       1.00
        H1          H  0.5399496  0.4669061  0.5980605    0.00000       Uiso       1.00
        H2          H  0.2888662  0.4432692  0.5386187    0.00000       Uiso       1.00
        H3          H  0.2888662  0.3842411  0.5386187    0.00000       Uiso       1.00
        C7          C  0.5873157  0.4611061  0.5872868    0.00000       Uiso       1.00
        C8          C  0.5662230  0.4627224  0.5985684    0.00000       Uiso       1.00
        C9          C  0.5564409  0.4661141  0.5889033    0.00000       Uiso       1.00
       C10          C  0.5985974  0.4627224  0.5661940    0.00000       Uiso       1.00
       C11          C  0.5889059  0.4662553  0.5565054    0.00000       Uiso       1.00
       C12          C  0.5675873  0.4680814  0.5676692    0.00000       Uiso       1.00
        H4          H  0.5331289  0.4019455  0.3288751    0.00000       Uiso       1.00
        H5          H  0.6157923  0.4613858  0.5567353    0.00000       Uiso       1.00
        H6          H  0.5567642  0.4613858  0.6157634    0.00000       Uiso       1.00
       C13          C  0.5873156  0.7135216  0.5872867    0.00000       Uiso       1.00
       C14          C  0.5985973  0.7020943  0.5661939    0.00000       Uiso       1.00
       C15          C  0.5889333  0.6792551  0.5564131    0.00000       Uiso       1.00
       C16          C  0.5662228  0.7020943  0.5985684    0.00000       Uiso       1.00
       C17          C  0.5565355  0.6791809  0.5888787    0.00000       Uiso       1.00
       C18          C  0.5677002  0.6671989  0.5675601    0.00000       Uiso       1.00
        H7          H  0.3289043  0.4600838  0.5330995    0.00000       Uiso       1.00
        H8          H  0.5567641  0.7111670  0.6157633    0.00000       Uiso       1.00
        H9          H  0.6157922  0.7111670  0.5567352    0.00000       Uiso       1.00
       C19          C  0.5389272  0.4127178  0.2864828    0.00000       Uiso       1.00
       C20          C  0.5373109  0.4338106  0.2979102    0.00000       Uiso       1.00
       C21          C  0.5337785  0.4434995  0.3208230    0.00000       Uiso       1.00
       C22          C  0.5373109  0.4014361  0.2979102    0.00000       Uiso       1.00
       C23          C  0.5339203  0.4111021  0.3207490    0.00000       Uiso       1.00
       C24          C  0.5319537  0.4323370  0.3328045    0.00000       Uiso       1.00
       H10          H  0.5980908  0.6711271  0.5399227    0.00000       Uiso       1.00
       C25          C  0.5000182  0.5000157  0.4999907    0.00000       Uiso       1.00
       H11          H  0.5386475  0.3842412  0.2888373    0.00000       Uiso       1.00
       H12          H  0.5386475  0.4432693  0.2888373    0.00000       Uiso       1.00
        S1          S  0.3348912  0.3953329  0.5309004    0.00000       Uiso       1.00
        O1          O  0.3577141  0.4079955  0.5274764    0.00000       Uiso       1.00
        O2          O  0.3254234  0.3900254  0.5504720    0.00000       Uiso       1.00
        O3          O  0.3324168  0.3739538  0.5110936    0.00000       Uiso       1.00
       H13          H  0.3398516  0.3655625  0.5095767    0.00000       Uiso       1.00
        S2          S  0.5309259  0.4704828  0.3348625    0.00000       Uiso       1.00
        O4          O  0.5275027  0.4772198  0.3576853    0.00000       Uiso       1.00
        O5          O  0.5504955  0.4858953  0.3253945    0.00000       Uiso       1.00
        O6          O  0.5111170  0.4695770  0.3323884    0.00000       Uiso       1.00
       H14          H  0.5095982  0.4838855  0.3398234    0.00000       Uiso       1.00
        S3          S  0.6047035  0.4691058  0.5295213    0.00000       Uiso       1.00
        O7          O  0.5920425  0.4725299  0.5227830    0.00000       Uiso       1.00
        O8          O  0.6245538  0.4874996  0.5303636    0.00000       Uiso       1.00
        O9          O  0.6104226  0.4480309  0.5129237    0.00000       Uiso       1.00
       H15          H  0.6188098  0.4495334  0.4986082    0.00000       Uiso       1.00
        S4          S  0.5295535  0.6651477  0.6046824    0.00000       Uiso       1.00
       O10          O  0.5228128  0.6423232  0.5920261    0.00000       Uiso       1.00
       O11          O  0.5304008  0.6674517  0.6245324    0.00000       Uiso       1.00
       O12          O  0.5129548  0.6753434  0.6104023    0.00000       Uiso       1.00
       H16          H  0.4986405  0.6679146  0.6187928    0.00000       Uiso       1.00
       C26          C  0.3575804  0.4429177  0.5278867    0.00000       Uiso       1.00
       C27          C  0.3678322  0.4384985  0.5362712    0.00000       Uiso       1.00
       C28          C  0.3908308  0.4481035  0.5324160    0.00000       Uiso       1.00
       C29          C  0.3712525  0.4574747  0.5155437    0.00000       Uiso       1.00
       C30          C  0.3942181  0.4673323  0.5117524    0.00000       Uiso       1.00
       C31          C  0.4040700  0.4626133  0.5201679    0.00000       Uiso       1.00
       H17          H  0.3641418  0.4609221  0.5084874    0.00000       Uiso       1.00
       H18          H  0.3578948  0.4277740  0.5460924    0.00000       Uiso       1.00
       C32          C  0.5571157  0.4721192  0.5574335    0.00000       Uiso       1.00
       C33          C  0.5425663  0.4844704  0.5706620    0.00000       Uiso       1.00
       C34          C  0.5327076  0.4882616  0.5613465    0.00000       Uiso       1.00
       C35          C  0.5615252  0.4637257  0.5343798    0.00000       Uiso       1.00
       C36          C  0.5519191  0.4675806  0.5248437    0.00000       Uiso       1.00
       C37          C  0.5374181  0.4798369  0.5383612    0.00000       Uiso       1.00
       H19          H  0.5722411  0.4538965  0.5237681    0.00000       Uiso       1.00
       H20          H  0.5391256  0.4915337  0.5882767    0.00000       Uiso       1.00
       C38          C  0.5574664  0.6424526  0.5570886    0.00000       Uiso       1.00
       C39          C  0.5706976  0.6287826  0.5425308    0.00000       Uiso       1.00
       C40          C  0.5613821  0.6058148  0.5326702    0.00000       Uiso       1.00
       C41          C  0.5344120  0.6322003  0.5615058    0.00000       Uiso       1.00
       C42          C  0.5248762  0.6092033  0.5519007    0.00000       Uiso       1.00
       C43          C  0.5383933  0.5959628  0.5373903    0.00000       Uiso       1.00
       H21          H  0.5237994  0.6421313  0.5722267    0.00000       Uiso       1.00
       H22          H  0.5883147  0.6359010  0.5390874    0.00000       Uiso       1.00
       C44          C  0.5279165  0.4425746  0.3575506    0.00000       Uiso       1.00
       C45          C  0.5363079  0.4656291  0.3678016    0.00000       Uiso       1.00
       C46          C  0.5324508  0.4751673  0.3908001    0.00000       Uiso       1.00
       C47          C  0.5155672  0.4293471  0.3712231    0.00000       Uiso       1.00
       C48          C  0.5117764  0.4386637  0.3941886    0.00000       Uiso       1.00
       C49          C  0.5201965  0.4616491  0.4040397    0.00000       Uiso       1.00
       H23          H  0.5085073  0.4117334  0.3641117    0.00000       Uiso       1.00
       H24          H  0.5461369  0.4762337  0.3578604    0.00000       Uiso       1.00
       C50          C  0.5405966  0.4980715  0.4008810    0.00000       Uiso       1.00
       C51          C  0.5364522  0.5074401  0.4237443    0.00000       Uiso       1.00
       C52          C  0.5565915  0.4594283  0.5019389    0.00000       Uiso       1.00
       C53          C  0.5472388  0.4635695  0.4925705    0.00000       Uiso       1.00
       H25          H  0.5676472  0.4499396  0.4912069    0.00000       Uiso       1.00
       H26          H  0.5500838  0.5087997  0.3910656    0.00000       Uiso       1.00
        S5          S  0.5541150  0.4529300  0.4629681    0.00000       Uiso       1.00
       O13          O  0.5428562  0.4590422  0.4571047    0.00000       Uiso       1.00
       O14          O  0.5773422  0.4618633  0.4529147    0.00000       Uiso       1.00
       O15          O  0.5470953  0.4276663  0.4549323    0.00000       Uiso       1.00
       H27          H  0.5507452  0.4220109  0.4392308    0.00000       Uiso       1.00
        S6          S  0.5470833  0.5370424  0.4358377    0.00000       Uiso       1.00
       O16          O  0.5409665  0.5429010  0.4590720    0.00000       Uiso       1.00
       O17          O  0.5705430  0.5445090  0.4263635    0.00000       Uiso       1.00
       O18          O  0.5374625  0.5478688  0.4312711    0.00000       Uiso       1.00
       H28          H  0.5431007  0.5635712  0.4376729    0.00000       Uiso       1.00
       C54          C  0.4272275  0.4722915  0.5161808    0.00000       Uiso       1.00
       C55          C  0.4371664  0.4672552  0.5242102    0.00000       Uiso       1.00
       C56          C  0.4602715  0.4764121  0.5196558    0.00000       Uiso       1.00
       C57          C  0.4404473  0.4867159  0.5038754    0.00000       Uiso       1.00
       C58          C  0.4634459  0.4959871  0.4996905    0.00000       Uiso       1.00
       C59          C  0.4740138  0.4912163  0.5074831    0.00000       Uiso       1.00
       H29          H  0.4933415  0.5101877  0.5434496    0.00000       Uiso       1.00
       H30          H  0.4787748  0.5326830  0.5287129    0.00000       Uiso       1.00
       C60          C  0.5277396  0.4838223  0.5288686    0.00000       Uiso       1.00
       C61          C  0.5133216  0.4961356  0.5423784    0.00000       Uiso       1.00
       C62          C  0.5040488  0.5003198  0.5328359    0.00000       Uiso       1.00
       C63          C  0.5327671  0.4757830  0.5058635    0.00000       Uiso       1.00
       C64          C  0.5236111  0.4803392  0.4964697    0.00000       Uiso       1.00
       C65          C  0.5088159  0.4925224  0.5097043    0.00000       Uiso       1.00
       H31          H  0.4673528  0.4713014  0.5251847    0.00000       Uiso       1.00
       H32          H  0.4898702  0.4565554  0.4733746    0.00000       Uiso       1.00
       C66          C  0.5288976  0.5728073  0.5277138    0.00000       Uiso       1.00
       C67          C  0.5424080  0.5595868  0.5132865    0.00000       Uiso       1.00
       C68          C  0.5328637  0.5365877  0.5040152    0.00000       Uiso       1.00
       C69          C  0.5058910  0.5628691  0.5327523    0.00000       Uiso       1.00
       C70          C  0.4964956  0.5397633  0.5235978    0.00000       Uiso       1.00
       C71          C  0.5097309  0.5260205  0.5087910    0.00000       Uiso       1.00
       H33          H  0.5252213  0.5212620  0.4673280    0.00000       Uiso       1.00
       H34          H  0.4734059  0.5067011  0.4898299    0.00000       Uiso       1.00
       C72          C  0.5162094  0.4711412  0.4271969    0.00000       Uiso       1.00
       C73          C  0.5242426  0.4941472  0.4371366    0.00000       Uiso       1.00
       C74          C  0.5196856  0.5035406  0.4602437    0.00000       Uiso       1.00
       C75          C  0.5039030  0.4576299  0.4404171    0.00000       Uiso       1.00
       C76          C  0.4997202  0.4671716  0.4634164    0.00000       Uiso       1.00
       C77          C  0.5075107  0.4903039  0.4739856    0.00000       Uiso       1.00
       H35          H  0.5434754  0.5266241  0.4932927    0.00000       Uiso       1.00
       H36          H  0.5287148  0.4748019  0.4787480    0.00000       Uiso       1.00
       C78          C  0.4925981  0.5762613  0.5472334    0.00000       Uiso       1.00
       C79          C  0.5019689  0.5991241  0.5565839    0.00000       Uiso       1.00
       C80          C  0.5653062  0.5696126  0.5086407    0.00000       Uiso       1.00
       C81          C  0.5746651  0.5924180  0.5182289    0.00000       Uiso       1.00
       C82          C  0.4237754  0.4527735  0.5364140    0.00000       Uiso       1.00
       C83          C  0.4009119  0.4434202  0.5405568    0.00000       Uiso       1.00
       C84          C  0.4304204  0.4913631  0.4956504    0.00000       Uiso       1.00
       C85          C  0.4076121  0.4817751  0.4995141    0.00000       Uiso       1.00
       C86          C  0.4956754  0.4347315  0.4303899    0.00000       Uiso       1.00
       C87          C  0.4995359  0.4253771  0.4075833    0.00000       Uiso       1.00
       C88          C  0.5086834  0.5043699  0.5652767    0.00000       Uiso       1.00
       C89          C  0.5182724  0.5005078  0.5746327    0.00000       Uiso       1.00
       H37          H  0.4977100  0.5139599  0.5760040    0.00000       Uiso       1.00
       H38          H  0.5760339  0.5597777  0.4976607    0.00000       Uiso       1.00
       H39          H  0.4912377  0.6089371  0.5676473    0.00000       Uiso       1.00
       H40          H  0.4402530  0.5023432  0.4860677    0.00000       Uiso       1.00
       H41          H  0.3910948  0.4323561  0.5500376    0.00000       Uiso       1.00
       H42          H  0.4860947  0.4240038  0.4402248    0.00000       Uiso       1.00
        S7          S  0.4629945  0.5641724  0.5541231    0.00000       Uiso       1.00
       O19          O  0.4532450  0.5810329  0.5690026    0.00000       Uiso       1.00
       O20          O  0.4574699  0.5535603  0.5345165    0.00000       Uiso       1.00
       O21          O  0.4542720  0.5471314  0.5650508    0.00000       Uiso       1.00
       H43          H  0.4385715  0.5407051  0.5687021    0.00000       Uiso       1.00
        S8          S  0.6042243  0.6044062  0.5117918    0.00000       Uiso       1.00
       O22          O  0.6139659  0.5875441  0.4968741    0.00000       Uiso       1.00
       O23          O  0.6126755  0.6205078  0.5018618    0.00000       Uiso       1.00
       O24          O  0.6097660  0.6154522  0.5330971    0.00000       Uiso       1.00
       H44          H  0.6254419  0.6218228  0.5296978    0.00000       Uiso       1.00
        S9          S  0.5118462  0.5116500  0.6041908    0.00000       Uiso       1.00
       O25          O  0.4969340  0.5233425  0.6139343    0.00000       Uiso       1.00
       O26          O  0.5019140  0.4940736  0.6126481    0.00000       Uiso       1.00
       O27          O  0.5331572  0.5274464  0.6097227    0.00000       Uiso       1.00
       H45          H  0.5297636  0.5333566  0.6253979    0.00000       Uiso       1.00
       S10          S  0.4884027  0.3958183  0.3955912    0.00000       Uiso       1.00
       O28          O  0.4767148  0.3860736  0.4124511    0.00000       Uiso       1.00
       O29          O  0.4737316  0.3906766  0.3853347    0.00000       Uiso       1.00
       O30          O  0.5073346  0.3867164  0.3782501    0.00000       Uiso       1.00
       H46          H  0.5014421  0.3710395  0.3718752    0.00000       Uiso       1.00
       S11          S  0.4358642  0.4458840  0.5470393    0.00000       Uiso       1.00
       O31          O  0.4190038  0.4310039  0.5587690    0.00000       Uiso       1.00
       O32          O  0.4516875  0.4357365  0.5291665    0.00000       Uiso       1.00
       O33          O  0.4472935  0.4669977  0.5626750    0.00000       Uiso       1.00
       H47          H  0.4537176  0.4633581  0.5683109    0.00000       Uiso       1.00
       S12          S  0.3956149  0.4882102  0.4883875    0.00000       Uiso       1.00
       O34          O  0.4124719  0.5031285  0.4767007    0.00000       Uiso       1.00
       O35          O  0.3853568  0.4684251  0.4737169    0.00000       Uiso       1.00
       O36          O  0.3782741  0.4989015  0.5073235    0.00000       Uiso       1.00
       H48          H  0.3718964  0.5023116  0.5014344    0.00000       Uiso       1.00
       C90          C  0.5389272  0.1846553  0.0584203    0.00000       Uiso       1.00
       C91          C  0.5373109  0.1732279  0.0697019    0.00000       Uiso       1.00
       C92          C  0.5337783  0.1503150  0.0600105    0.00000       Uiso       1.00
       C93          C  0.5373110  0.1732279  0.0373275    0.00000       Uiso       1.00
       C94          C  0.5339195  0.1503889  0.0275457    0.00000       Uiso       1.00
       C95          C  0.5319527  0.1383330  0.0386916    0.00000       Uiso       1.00
       H49          H  0.5980892  0.9312167  0.0042318    0.00000       Uiso       1.00
       H50          H  0.5386476  0.1823007  0.0278688    0.00000       Uiso       1.00
       H51          H  0.5386475  0.1823007  0.0868969    0.00000       Uiso       1.00
       C96          C  0.5873155  0.8838505  0.0100319    0.00000       Uiso       1.00
       C97          C  0.5985972  0.9049432  0.0084156    0.00000       Uiso       1.00
       C98          C  0.5889320  0.9147253  0.0050239    0.00000       Uiso       1.00
       C99          C  0.5662227  0.8725688  0.0084156    0.00000       Uiso       1.00
      C100          C  0.5565341  0.8822603  0.0048827    0.00000       Uiso       1.00
      C101          C  0.5676978  0.9035790  0.0030566    0.00000       Uiso       1.00
       H52          H  0.3289038  0.9380373  0.0691925    0.00000       Uiso       1.00
       H53          H  0.5567640  0.8553739  0.0097522    0.00000       Uiso       1.00
       H54          H  0.6157920  0.9144019  0.0097522    0.00000       Uiso       1.00
      C102          C  0.5873156  0.8838505  0.7576156    0.00000       Uiso       1.00
      C103          C  0.5662227  0.8725688  0.7690430    0.00000       Uiso       1.00
      C104          C  0.5564419  0.8822328  0.7918822    0.00000       Uiso       1.00
      C105          C  0.5985973  0.9049433  0.7690430    0.00000       Uiso       1.00
      C106          C  0.5889076  0.9146306  0.7919563    0.00000       Uiso       1.00
      C107          C  0.5675890  0.9034659  0.8039384    0.00000       Uiso       1.00
       H55          H  0.5331284  0.1422625  0.0110541    0.00000       Uiso       1.00
       H56          H  0.6157922  0.9144021  0.7599701    0.00000       Uiso       1.00
       H57          H  0.5567641  0.8553739  0.7599701    0.00000       Uiso       1.00
      C108          C  0.2865115  0.9322390  0.0584202    0.00000       Uiso       1.00
      C109          C  0.2979389  0.9338552  0.0373274    0.00000       Uiso       1.00
      C110          C  0.3208516  0.9373876  0.0276385    0.00000       Uiso       1.00
      C111          C  0.2979389  0.9338552  0.0697019    0.00000       Uiso       1.00
      C112          C  0.3207777  0.9372459  0.0600359    0.00000       Uiso       1.00
      C113          C  0.3328332  0.9392124  0.0388010    0.00000       Uiso       1.00
       H58          H  0.5399516  0.8730752  0.8000101    0.00000       Uiso       1.00
      C114          C  0.5000196  0.9711480  0.9711215    0.00000       Uiso       1.00
       H59          H  0.2888660  0.9325186  0.0868968    0.00000       Uiso       1.00
       H60          H  0.2888660  0.9325186  0.0278688    0.00000       Uiso       1.00
       S13          S  0.5309293  0.1362757  0.0758051    0.00000       Uiso       1.00
       O37          O  0.5275053  0.1134528  0.0631424    0.00000       Uiso       1.00
       O38          O  0.5505009  0.1457435  0.0811126    0.00000       Uiso       1.00
       O39          O  0.5111225  0.1387501  0.0971842    0.00000       Uiso       1.00
       H61          H  0.5096056  0.1313152  0.1055755    0.00000       Uiso       1.00
       S14          S  0.3348911  0.9402403  0.0006552    0.00000       Uiso       1.00
       O40          O  0.3577142  0.9436635  0.9939175    0.00000       Uiso       1.00
       O41          O  0.3254234  0.9206706  0.9852420    0.00000       Uiso       1.00
       O42          O  0.3324170  0.9600492  0.0015610    0.00000       Uiso       1.00
       H62          H  0.3398522  0.9615679  0.9872518    0.00000       Uiso       1.00
       S15          S  0.5295500  0.8664627  0.0020322    0.00000       Uiso       1.00
       O43          O  0.5228119  0.8791236  0.9986074    0.00000       Uiso       1.00
       O44          O  0.5303925  0.8466123  0.9836377    0.00000       Uiso       1.00
       O45          O  0.5129523  0.8607436  0.0231071    0.00000       Uiso       1.00
       H63          H  0.4986368  0.8523564  0.0216046    0.00000       Uiso       1.00
       S16          S  0.6047114  0.9416126  0.8059895    0.00000       Uiso       1.00
       O46          O  0.5920550  0.9483534  0.8288141    0.00000       Uiso       1.00
       O47          O  0.6245613  0.9407653  0.8036855    0.00000       Uiso       1.00
       O48          O  0.6104312  0.9582112  0.7957939    0.00000       Uiso       1.00
       H64          H  0.6188216  0.9725257  0.8032227    0.00000       Uiso       1.00
      C115          C  0.5279156  0.1135865  0.0282203    0.00000       Uiso       1.00
      C116          C  0.5363001  0.1033346  0.0326395    0.00000       Uiso       1.00
      C117          C  0.5324450  0.0803361  0.0230345    0.00000       Uiso       1.00
      C118          C  0.5155725  0.0999144  0.0136633    0.00000       Uiso       1.00
      C119          C  0.5117812  0.0769487  0.0038057    0.00000       Uiso       1.00
      C120          C  0.5201968  0.0670968  0.0085247    0.00000       Uiso       1.00
       H65          H  0.5085163  0.1070250  0.0102159    0.00000       Uiso       1.00
       H66          H  0.5461212  0.1132721  0.0433640    0.00000       Uiso       1.00
      C121          C  0.5574624  0.9140504  0.9990180    0.00000       Uiso       1.00
      C122          C  0.5706909  0.9285999  0.9866668    0.00000       Uiso       1.00
      C123          C  0.5613754  0.9384586  0.9828757    0.00000       Uiso       1.00
      C124          C  0.5344085  0.9096410  0.0074122    0.00000       Uiso       1.00
      C125          C  0.5248724  0.9192470  0.0035574    0.00000       Uiso       1.00
      C126          C  0.5383901  0.9337479  0.9913003    0.00000       Uiso       1.00
       H67          H  0.5237968  0.8989251  0.0172415    0.00000       Uiso       1.00
       H68          H  0.5883056  0.9320405  0.9796035    0.00000       Uiso       1.00
      C127          C  0.5571174  0.9136998  0.8286846    0.00000       Uiso       1.00
      C128          C  0.5425597  0.9004686  0.8423547    0.00000       Uiso       1.00
      C129          C  0.5326990  0.9097840  0.8653225    0.00000       Uiso       1.00
      C130          C  0.5615346  0.9367542  0.8389370    0.00000       Uiso       1.00
      C131          C  0.5519295  0.9462900  0.8619339    0.00000       Uiso       1.00
      C132          C  0.5374192  0.9327729  0.8751745    0.00000       Uiso       1.00
       H69          H  0.5722556  0.9473667  0.8290059    0.00000       Uiso       1.00
       H70          H  0.5391163  0.8828514  0.8352363    0.00000       Uiso       1.00
      C133          C  0.3575792  0.9432496  0.0285634    0.00000       Uiso       1.00
      C134          C  0.3678302  0.9348582  0.0055089    0.00000       Uiso       1.00
      C135          C  0.3908290  0.9387153  0.9959699    0.00000       Uiso       1.00
      C136          C  0.3712517  0.9555989  0.0417909    0.00000       Uiso       1.00
      C137          C  0.3942173  0.9593897  0.0324743    0.00000       Uiso       1.00
      C138          C  0.4040684  0.9509696  0.0094889    0.00000       Uiso       1.00
       H71          H  0.3641403  0.9626589  0.0594046    0.00000       Uiso       1.00
       H72          H  0.3578893  0.9250292  0.9949036    0.00000       Uiso       1.00
      C139          C  0.4009098  0.9305695  0.9730657    0.00000       Uiso       1.00
      C140          C  0.4237732  0.9347139  0.9636971    0.00000       Uiso       1.00
      C141          C  0.5019676  0.9145747  0.0117098    0.00000       Uiso       1.00
      C142          C  0.4925991  0.9239274  0.0075685    0.00000       Uiso       1.00
       H73          H  0.4912356  0.9035190  0.0211984    0.00000       Uiso       1.00
       H74          H  0.3910944  0.9210823  0.9623376    0.00000       Uiso       1.00
       S17          S  0.4629967  0.9170512  0.0182080    0.00000       Uiso       1.00
       O49          O  0.4571334  0.9283100  0.0120958    0.00000       Uiso       1.00
       O50          O  0.4529433  0.8938240  0.0092747    0.00000       Uiso       1.00
       O51          O  0.4549609  0.9240708  0.0434717    0.00000       Uiso       1.00
       H75          H  0.4392595  0.9204209  0.0491271    0.00000       Uiso       1.00
       S18          S  0.4358666  0.9240828  0.9340948    0.00000       Uiso       1.00
       O52          O  0.4591009  0.9301997  0.9282362    0.00000       Uiso       1.00
       O53          O  0.4263924  0.9006231  0.9266283    0.00000       Uiso       1.00
       O54          O  0.4313000  0.9337036  0.9232685    0.00000       Uiso       1.00
       H76          H  0.4377018  0.9280655  0.9075661    0.00000       Uiso       1.00
      C143          C  0.5162099  0.0439393  0.9988458    0.00000       Uiso       1.00
      C144          C  0.5242391  0.0340005  0.0038827    0.00000       Uiso       1.00
      C145          C  0.5196850  0.0108953  0.9947252    0.00000       Uiso       1.00
      C146          C  0.5039045  0.0307195  0.9844214    0.00000       Uiso       1.00
      C147          C  0.4997196  0.0077209  0.9751502    0.00000       Uiso       1.00
      C148          C  0.5075119  0.9971523  0.9799209    0.00000       Uiso       1.00
       H77          H  0.5434785  0.9778247  0.9609495    0.00000       Uiso       1.00
       H78          H  0.5287418  0.9923913  0.9384543    0.00000       Uiso       1.00
      C149          C  0.5288974  0.9434265  0.9873149    0.00000       Uiso       1.00
      C150          C  0.5424072  0.9578446  0.9750016    0.00000       Uiso       1.00
      C151          C  0.5328647  0.9671174  0.9708175    0.00000       Uiso       1.00
      C152          C  0.5058923  0.9383990  0.9953542    0.00000       Uiso       1.00
      C153          C  0.4964986  0.9475550  0.9907980    0.00000       Uiso       1.00
      C154          C  0.5097331  0.9623501  0.9786148    0.00000       Uiso       1.00
       H79          H  0.5252138  0.0038140  0.9998358    0.00000       Uiso       1.00
       H80          H  0.4734032  0.9812959  0.0145825    0.00000       Uiso       1.00
      C155          C  0.5277427  0.9422686  0.8983300    0.00000       Uiso       1.00
      C156          C  0.5133153  0.9287581  0.9115505    0.00000       Uiso       1.00
      C157          C  0.5040441  0.9383023  0.9345496    0.00000       Uiso       1.00
      C158          C  0.5327812  0.9652752  0.9082681    0.00000       Uiso       1.00
      C159          C  0.5236267  0.9746705  0.9313740    0.00000       Uiso       1.00
      C160          C  0.5088198  0.9614352  0.9451168    0.00000       Uiso       1.00
       H81          H  0.4673569  0.9459447  0.9498752    0.00000       Uiso       1.00
       H82          H  0.4898587  0.9977602  0.9644362    0.00000       Uiso       1.00
      C161          C  0.4272258  0.9549567  0.9999961    0.00000       Uiso       1.00
      C162          C  0.4371654  0.9469235  0.9769901    0.00000       Uiso       1.00
      C163          C  0.4602726  0.9514804  0.9675967    0.00000       Uiso       1.00
      C164          C  0.4404457  0.9672632  0.0135081    0.00000       Uiso       1.00
      C165          C  0.4634450  0.9714460  0.0039664    0.00000       Uiso       1.00
      C166          C  0.4740144  0.9636554  0.9808334    0.00000       Uiso       1.00
       H83          H  0.4933215  0.9276907  0.9445131    0.00000       Uiso       1.00
       H84          H  0.4787768  0.9424513  0.9963353    0.00000       Uiso       1.00
      C167          C  0.5472623  0.9785680  0.8948759    0.00000       Uiso       1.00
      C168          C  0.5566128  0.9691972  0.8720132    0.00000       Uiso       1.00
      C169          C  0.5086696  0.9058599  0.9015247    0.00000       Uiso       1.00
      C170          C  0.5182577  0.8965011  0.8787193    0.00000       Uiso       1.00
      C171          C  0.5364429  0.0473915  0.0183645    0.00000       Uiso       1.00
      C172          C  0.5405857  0.0702550  0.0277178    0.00000       Uiso       1.00
      C173          C  0.4956796  0.0407464  0.9797741    0.00000       Uiso       1.00
      C174          C  0.4995432  0.0635547  0.9893622    0.00000       Uiso       1.00
      C175          C  0.4304186  0.9754907  0.0364065    0.00000       Uiso       1.00
      C176          C  0.4076119  0.9716303  0.0457609    0.00000       Uiso       1.00
      C177          C  0.5653057  0.9624826  0.9667673    0.00000       Uiso       1.00
      C178          C  0.5746616  0.9528937  0.9706295    0.00000       Uiso       1.00
       H85          H  0.5760329  0.9734561  0.9571773    0.00000       Uiso       1.00
       H86          H  0.4976895  0.8951323  0.9113595    0.00000       Uiso       1.00
       H87          H  0.5676761  0.9799284  0.8622001    0.00000       Uiso       1.00
       H88          H  0.4860967  0.0309138  0.9687940    0.00000       Uiso       1.00
       H89          H  0.5500665  0.0800721  0.0387819    0.00000       Uiso       1.00
       H90          H  0.4402535  0.9850715  0.0471342    0.00000       Uiso       1.00
       S19          S  0.5541523  0.0081723  0.9069648    0.00000       Uiso       1.00
       O55          O  0.5690317  0.0179218  0.8901044    0.00000       Uiso       1.00
       O56          O  0.5345455  0.0136969  0.9175770    0.00000       Uiso       1.00
       O57          O  0.5650799  0.0168948  0.9240059    0.00000       Uiso       1.00
       H91          H  0.5687312  0.0325953  0.9304321    0.00000       Uiso       1.00
       S20          S  0.5118207  0.8669418  0.8667310    0.00000       Uiso       1.00
       O58          O  0.4969029  0.8572001  0.8835931    0.00000       Uiso       1.00
       O59          O  0.5018907  0.8584906  0.8506294    0.00000       Uiso       1.00
       O60          O  0.5331260  0.8614001  0.8556851    0.00000       Uiso       1.00
       H92          H  0.5297267  0.8457242  0.8493145    0.00000       Uiso       1.00
       S21          S  0.6042196  0.9593199  0.9594873    0.00000       Uiso       1.00
       O61          O  0.6139631  0.9742321  0.9477947    0.00000       Uiso       1.00
       O62          O  0.6126770  0.9692522  0.9770637    0.00000       Uiso       1.00
       O63          O  0.6097516  0.9380090  0.9436908    0.00000       Uiso       1.00
       H93          H  0.6254268  0.9414026  0.9377806    0.00000       Uiso       1.00
       S22          S  0.3956199  0.9827634  0.0753197    0.00000       Uiso       1.00
       O64          O  0.4124798  0.9944513  0.0850644    0.00000       Uiso       1.00
       O65          O  0.3853633  0.9974346  0.0804614    0.00000       Uiso       1.00
       O66          O  0.3782788  0.9638315  0.0844216    0.00000       Uiso       1.00
       H94          H  0.3719038  0.9697241  0.1000985    0.00000       Uiso       1.00
       S23          S  0.5470682  0.0353027  0.0252540    0.00000       Uiso       1.00
       O67          O  0.5587980  0.0521631  0.0401341    0.00000       Uiso       1.00
       O68          O  0.5291953  0.0194794  0.0354015    0.00000       Uiso       1.00
       O69          O  0.5627039  0.0238734  0.0041403    0.00000       Uiso       1.00
       H95          H  0.5683398  0.0174493  0.0077798    0.00000       Uiso       1.00
       S24          S  0.4884166  0.0755519  0.9829271    0.00000       Uiso       1.00
       O70          O  0.4767298  0.0586949  0.9680086    0.00000       Uiso       1.00
       O71          O  0.4737458  0.0858101  0.0027129    0.00000       Uiso       1.00
       O72          O  0.5073526  0.0928927  0.9722358    0.00000       Uiso       1.00
       H96          H  0.5014635  0.0992704  0.9688257    0.00000       Uiso       1.00
      C179          C  0.0584489  0.9322389  0.2864827    0.00000       Uiso       1.00
      C180          C  0.0697306  0.9338552  0.2979101    0.00000       Uiso       1.00
      C181          C  0.0600391  0.9373879  0.3208230    0.00000       Uiso       1.00
      C182          C  0.0373561  0.9338552  0.2979101    0.00000       Uiso       1.00
      C183          C  0.0275743  0.9372467  0.3207491    0.00000       Uiso       1.00
      C184          C  0.0387202  0.9392135  0.3328050    0.00000       Uiso       1.00
       H97          H  0.0042605  0.8730767  0.5399206    0.00000       Uiso       1.00
       H98          H  0.0278974  0.9325186  0.2888373    0.00000       Uiso       1.00
       H99          H  0.0869255  0.9325186  0.2888373    0.00000       Uiso       1.00
      C185          C  0.0100605  0.8838505  0.5872868    0.00000       Uiso       1.00
      C186          C  0.0084443  0.8725688  0.5661940    0.00000       Uiso       1.00
      C187          C  0.0050526  0.8822340  0.5564120    0.00000       Uiso       1.00
      C188          C  0.0084442  0.9049432  0.5985684    0.00000       Uiso       1.00
      C189          C  0.0049114  0.9146319  0.5888770    0.00000       Uiso       1.00
      C190          C  0.0030853  0.9034681  0.5675583    0.00000       Uiso       1.00
      H100          H  0.0692214  0.1422628  0.5331000    0.00000       Uiso       1.00
      H101          H  0.0097809  0.9144019  0.6157634    0.00000       Uiso       1.00
      H102          H  0.0097809  0.8553739  0.5567353    0.00000       Uiso       1.00
      C191          C  0.7576445  0.8838506  0.5872867    0.00000       Uiso       1.00
      C192          C  0.7690719  0.9049433  0.5985684    0.00000       Uiso       1.00
      C193          C  0.7919111  0.9147242  0.5889044    0.00000       Uiso       1.00
      C194          C  0.7690719  0.8725689  0.5661939    0.00000       Uiso       1.00
      C195          C  0.7919852  0.8822586  0.5565067    0.00000       Uiso       1.00
      C196          C  0.8039672  0.9035771  0.5676713    0.00000       Uiso       1.00
      H103          H  0.0110827  0.9380378  0.3288755    0.00000       Uiso       1.00
      H104          H  0.7599990  0.8553740  0.5567352    0.00000       Uiso       1.00
      H105          H  0.7599990  0.9144021  0.6157633    0.00000       Uiso       1.00
      C197          C  0.0584491  0.1846552  0.5388983    0.00000       Uiso       1.00
      C198          C  0.0373563  0.1732278  0.5372820    0.00000       Uiso       1.00
      C199          C  0.0276674  0.1503150  0.5337496    0.00000       Uiso       1.00
      C200          C  0.0697308  0.1732278  0.5372820    0.00000       Uiso       1.00
      C201          C  0.0600648  0.1503890  0.5338914    0.00000       Uiso       1.00
      C202          C  0.0388299  0.1383335  0.5319248    0.00000       Uiso       1.00
      H106          H  0.8000391  0.9312146  0.5980620    0.00000       Uiso       1.00
      C203          C  0.9711504  0.9711466  0.4999892    0.00000       Uiso       1.00
      H107          H  0.0869257  0.1823006  0.5386187    0.00000       Uiso       1.00
      H108          H  0.0278976  0.1823006  0.5386187    0.00000       Uiso       1.00
       S25          S  0.0758337  0.9402369  0.3348623    0.00000       Uiso       1.00
       O73          O  0.0631711  0.9436609  0.3576852    0.00000       Uiso       1.00
       O74          O  0.0811412  0.9206653  0.3253945    0.00000       Uiso       1.00
       O75          O  0.0972128  0.9600437  0.3323879    0.00000       Uiso       1.00
      H109          H  0.1056041  0.9615605  0.3398227    0.00000       Uiso       1.00
       S26          S  0.0006841  0.1362755  0.5308970    0.00000       Uiso       1.00
       O76          O  0.9939466  0.1134527  0.5274738    0.00000       Uiso       1.00
       O77          O  0.9852711  0.1457434  0.5504666    0.00000       Uiso       1.00
       O78          O  0.0015899  0.1387496  0.5110881    0.00000       Uiso       1.00
      H110          H  0.9872808  0.1313146  0.5095693    0.00000       Uiso       1.00
       S27          S  0.0020608  0.9416160  0.6046746    0.00000       Uiso       1.00
       O79          O  0.9986362  0.9483542  0.5920137    0.00000       Uiso       1.00
       O80          O  0.9836666  0.9407737  0.6245250    0.00000       Uiso       1.00
       O81          O  0.0231358  0.9582137  0.6103936    0.00000       Uiso       1.00
      H111          H  0.0216332  0.9725291  0.6187809    0.00000       Uiso       1.00
       S28          S  0.8060184  0.8664548  0.5295246    0.00000       Uiso       1.00
       O82          O  0.8288429  0.8791112  0.5227839    0.00000       Uiso       1.00
       O83          O  0.8037143  0.8466048  0.5303719    0.00000       Uiso       1.00
       O84          O  0.7958227  0.8607349  0.5129260    0.00000       Uiso       1.00
      H112          H  0.8032516  0.8523445  0.4986116    0.00000       Uiso       1.00
      C204          C  0.0282489  0.9432506  0.3575515    0.00000       Uiso       1.00
      C205          C  0.0326682  0.9348661  0.3678034    0.00000       Uiso       1.00
      C206          C  0.0230632  0.9387212  0.3908019    0.00000       Uiso       1.00
      C207          C  0.0136919  0.9555936  0.3712236    0.00000       Uiso       1.00
      C208          C  0.0038343  0.9593849  0.3941893    0.00000       Uiso       1.00
      C209          C  0.0085533  0.9509694  0.4040412    0.00000       Uiso       1.00
      H113          H  0.0102445  0.9626499  0.3641129    0.00000       Uiso       1.00
      H114          H  0.0433926  0.9250449  0.3578659    0.00000       Uiso       1.00
      C210          C  0.9990469  0.9137037  0.5570868    0.00000       Uiso       1.00
      C211          C  0.9866956  0.9004753  0.5425373    0.00000       Uiso       1.00
      C212          C  0.9829046  0.9097908  0.5326787    0.00000       Uiso       1.00
      C213          C  0.0074409  0.9367574  0.5614962    0.00000       Uiso       1.00
      C214          C  0.0035860  0.9462936  0.5518902    0.00000       Uiso       1.00
      C215          C  0.9913291  0.9327761  0.5373892    0.00000       Uiso       1.00
      H115          H  0.0172702  0.9473692  0.5722122    0.00000       Uiso       1.00
      H116          H  0.9796324  0.8828606  0.5390967    0.00000       Uiso       1.00
      C216          C  0.8287135  0.9140487  0.5574375    0.00000       Uiso       1.00
      C217          C  0.8423834  0.9286065  0.5706687    0.00000       Uiso       1.00
      C218          C  0.8653514  0.9384670  0.5613531    0.00000       Uiso       1.00
      C219          C  0.8389659  0.9096316  0.5343831    0.00000       Uiso       1.00
      C220          C  0.8619627  0.9192365  0.5248473    0.00000       Uiso       1.00
      C221          C  0.8752033  0.9337469  0.5383644    0.00000       Uiso       1.00
      H117          H  0.8290348  0.8989105  0.5237705    0.00000       Uiso       1.00
      H118          H  0.8352651  0.9320498  0.5882858    0.00000       Uiso       1.00
      C222          C  0.0285923  0.1135874  0.5278876    0.00000       Uiso       1.00
      C223          C  0.0055378  0.1033364  0.5362791    0.00000       Uiso       1.00
      C224          C  0.9959990  0.0803379  0.5324219    0.00000       Uiso       1.00
      C225          C  0.0418198  0.0999149  0.5155384    0.00000       Uiso       1.00
      C226          C  0.0325032  0.0769493  0.5117476    0.00000       Uiso       1.00
      C227          C  0.0095178  0.0670983  0.5201676    0.00000       Uiso       1.00
      H119          H  0.0594335  0.1070263  0.5084784    0.00000       Uiso       1.00
      H120          H  0.9949327  0.1132776  0.5461080    0.00000       Uiso       1.00
      C228          C  0.9730948  0.0702570  0.5405677    0.00000       Uiso       1.00
      C229          C  0.9637262  0.0473937  0.5364233    0.00000       Uiso       1.00
      C230          C  0.0117384  0.9691983  0.5565625    0.00000       Uiso       1.00
      C231          C  0.0075972  0.9785668  0.5472099    0.00000       Uiso       1.00
      H121          H  0.0212270  0.9799303  0.5676183    0.00000       Uiso       1.00
      H122          H  0.9623666  0.0800724  0.5500550    0.00000       Uiso       1.00
       S29          S  0.0182369  0.0081699  0.5540861    0.00000       Uiso       1.00
       O85          O  0.0121247  0.0140332  0.5428273    0.00000       Uiso       1.00
       O86          O  0.0093036  0.0182233  0.5773133    0.00000       Uiso       1.00
       O87          O  0.0435006  0.0162057  0.5470665    0.00000       Uiso       1.00
      H123          H  0.0491560  0.0319072  0.5507163    0.00000       Uiso       1.00
       S30          S  0.9341240  0.0353002  0.5470545    0.00000       Uiso       1.00
       O88          O  0.9282654  0.0120660  0.5409376    0.00000       Uiso       1.00
       O89          O  0.9266574  0.0447745  0.5705141    0.00000       Uiso       1.00
       O90          O  0.9232976  0.0398668  0.5374337    0.00000       Uiso       1.00
      H124          H  0.9075952  0.0334650  0.5430718    0.00000       Uiso       1.00
      C232          C  0.9988746  0.9549564  0.4271986    0.00000       Uiso       1.00
      C233          C  0.0039114  0.9469271  0.4371375    0.00000       Uiso       1.00
      C234          C  0.9947541  0.9514815  0.4602426    0.00000       Uiso       1.00
      C235          C  0.9844502  0.9672619  0.4404184    0.00000       Uiso       1.00
      C236          C  0.9751790  0.9714468  0.4634170    0.00000       Uiso       1.00
      C237          C  0.9799498  0.9636542  0.4739849    0.00000       Uiso       1.00
      H125          H  0.9609784  0.9276876  0.4933126    0.00000       Uiso       1.00
      H126          H  0.9384831  0.9424244  0.4787459    0.00000       Uiso       1.00
      C238          C  0.9873437  0.9422687  0.5277108    0.00000       Uiso       1.00
      C239          C  0.9750305  0.9287589  0.5132927    0.00000       Uiso       1.00
      C240          C  0.9708464  0.9383014  0.5040199    0.00000       Uiso       1.00
      C241          C  0.9953831  0.9652738  0.5327382    0.00000       Uiso       1.00
      C242          C  0.9908269  0.9746675  0.5235822    0.00000       Uiso       1.00
      C243          C  0.9786437  0.9614330  0.5087871    0.00000       Uiso       1.00
      H127          H  0.9998646  0.9459525  0.4673239    0.00000       Uiso       1.00
      H128          H  0.0146112  0.9977627  0.4898414    0.00000       Uiso       1.00
      C244          C  0.8983589  0.9434234  0.5288687    0.00000       Uiso       1.00
      C245          C  0.9115793  0.9578508  0.5423791    0.00000       Uiso       1.00
      C246          C  0.9345784  0.9671221  0.5328349    0.00000       Uiso       1.00
      C247          C  0.9082969  0.9383850  0.5058621    0.00000       Uiso       1.00
      C248          C  0.9314029  0.9475395  0.4964668    0.00000       Uiso       1.00
      C249          C  0.9451455  0.9623463  0.5097020    0.00000       Uiso       1.00
      H129          H  0.9499044  0.0038100  0.5251925    0.00000       Uiso       1.00
      H130          H  0.9644650  0.9813074  0.4733770    0.00000       Uiso       1.00
      C250          C  0.0000257  0.0439410  0.5161805    0.00000       Uiso       1.00
      C251          C  0.9770193  0.0340014  0.5242138    0.00000       Uiso       1.00
      C252          C  0.9676258  0.0108943  0.5196568    0.00000       Uiso       1.00
      C253          C  0.0135370  0.0307209  0.5038741    0.00000       Uiso       1.00
      C254          C  0.0039953  0.0077216  0.4996913    0.00000       Uiso       1.00
      C255          C  0.9808623  0.9971518  0.5074818    0.00000       Uiso       1.00
      H131          H  0.9445421  0.9778446  0.5434465    0.00000       Uiso       1.00
      H132          H  0.9963642  0.9923893  0.5286859    0.00000       Uiso       1.00
      C256          C  0.8949049  0.9239038  0.4925692    0.00000       Uiso       1.00
      C257          C  0.8720419  0.9145533  0.5019400    0.00000       Uiso       1.00
      C258          C  0.9015535  0.9624966  0.5652773    0.00000       Uiso       1.00
      C259          C  0.8787481  0.9529084  0.5746361    0.00000       Uiso       1.00
      C260          C  0.0183931  0.9347233  0.4237465    0.00000       Uiso       1.00
      C261          C  0.0277465  0.9305805  0.4008830    0.00000       Uiso       1.00
      C262          C  0.9798030  0.9754869  0.4303916    0.00000       Uiso       1.00
      C263          C  0.9893910  0.9716232  0.4075832    0.00000       Uiso       1.00
      C264          C  0.0364354  0.0407480  0.4956466    0.00000       Uiso       1.00
      C265          C  0.0457898  0.0635547  0.4995070    0.00000       Uiso       1.00
      C266          C  0.9667962  0.9058605  0.5086545    0.00000       Uiso       1.00
      C267          C  0.9706584  0.8965046  0.5182436    0.00000       Uiso       1.00
      H133          H  0.9572062  0.8951333  0.4976812    0.00000       Uiso       1.00
      H134          H  0.9113884  0.9734766  0.5760050    0.00000       Uiso       1.00
      H135          H  0.8622290  0.9034900  0.4912089    0.00000       Uiso       1.00
      H136          H  0.9688228  0.9850696  0.4402241    0.00000       Uiso       1.00
      H137          H  0.0388105  0.9210997  0.3910659    0.00000       Uiso       1.00
      H138          H  0.0471631  0.0309132  0.4860657    0.00000       Uiso       1.00
       S31          S  0.9069937  0.9170142  0.4629656    0.00000       Uiso       1.00
       O91          O  0.8901333  0.9021347  0.4532161    0.00000       Uiso       1.00
       O92          O  0.9176059  0.9366208  0.4574411    0.00000       Uiso       1.00
       O93          O  0.9240347  0.9060866  0.4542432    0.00000       Uiso       1.00
      H139          H  0.9304609  0.9024352  0.4385427    0.00000       Uiso       1.00
       S32          S  0.8667598  0.9593454  0.6041955    0.00000       Uiso       1.00
       O94          O  0.8836219  0.9742631  0.6139370    0.00000       Uiso       1.00
       O95          O  0.8506583  0.9692755  0.6126466    0.00000       Uiso       1.00
       O96          O  0.8557139  0.9380401  0.6097372    0.00000       Uiso       1.00
      H140          H  0.8493433  0.9414395  0.6254130    0.00000       Uiso       1.00
       S33          S  0.9595162  0.8669466  0.5118173    0.00000       Uiso       1.00
       O97          O  0.9478236  0.8572031  0.4969051    0.00000       Uiso       1.00
       O98          O  0.9770926  0.8584892  0.5018851    0.00000       Uiso       1.00
       O99          O  0.9437197  0.8614145  0.5331283    0.00000       Uiso       1.00
      H141          H  0.9378095  0.8457394  0.5297347    0.00000       Uiso       1.00
       S34          S  0.0753486  0.0755467  0.4883738    0.00000       Uiso       1.00
      O100          O  0.0850933  0.0586869  0.4766860    0.00000       Uiso       1.00
      O101          O  0.0804903  0.0858033  0.4737027    0.00000       Uiso       1.00
      O102          O  0.0844505  0.0928879  0.5073058    0.00000       Uiso       1.00
      H142          H  0.1001274  0.0992628  0.5014132    0.00000       Uiso       1.00
       S35          S  0.0252827  0.9240980  0.4358353    0.00000       Uiso       1.00
      O103          O  0.0401627  0.9123682  0.4189749    0.00000       Uiso       1.00
      O104          O  0.0354301  0.9419709  0.4516586    0.00000       Uiso       1.00
      O105          O  0.0041690  0.9084623  0.4472646    0.00000       Uiso       1.00
      H143          H  0.0078085  0.9028263  0.4536887    0.00000       Uiso       1.00
       S36          S  0.9829559  0.9827498  0.3955860    0.00000       Uiso       1.00
      O106          O  0.9680375  0.9944367  0.4124430    0.00000       Uiso       1.00
      O107          O  0.0027415  0.9974204  0.3853279    0.00000       Uiso       1.00
      O108          O  0.9722646  0.9638138  0.3782452    0.00000       Uiso       1.00
      H144          H  0.9688545  0.9697029  0.3718676    0.00000       Uiso       1.00
      C268          C  0.0584491  0.4127177  0.5388984    0.00000       Uiso       1.00
      C269          C  0.0697308  0.4338105  0.5372821    0.00000       Uiso       1.00
      C270          C  0.0600394  0.4434993  0.5337495    0.00000       Uiso       1.00
      C271          C  0.0373563  0.4014361  0.5372821    0.00000       Uiso       1.00
      C272          C  0.0275745  0.4111018  0.5338907    0.00000       Uiso       1.00
      C273          C  0.0387204  0.4323368  0.5319239    0.00000       Uiso       1.00
      H145          H  0.0042607  0.6711295  0.5980606    0.00000       Uiso       1.00
      H146          H  0.0278976  0.3842412  0.5386187    0.00000       Uiso       1.00
      H147          H  0.0869257  0.4432692  0.5386187    0.00000       Uiso       1.00
      C274          C  0.0100607  0.7135219  0.5872869    0.00000       Uiso       1.00
      C275          C  0.0084444  0.7020945  0.5985686    0.00000       Uiso       1.00
      C276          C  0.0050527  0.6792557  0.5889034    0.00000       Uiso       1.00
      C277          C  0.0084444  0.7020945  0.5661941    0.00000       Uiso       1.00
      C278          C  0.0049116  0.6791816  0.5565055    0.00000       Uiso       1.00
      C279          C  0.0030854  0.6672005  0.5676693    0.00000       Uiso       1.00
      H148          H  0.0692214  0.4600841  0.3288752    0.00000       Uiso       1.00
      H149          H  0.0097810  0.7111674  0.5567355    0.00000       Uiso       1.00
      H150          H  0.0097810  0.7111673  0.6157635    0.00000       Uiso       1.00
      C280          C  0.7576447  0.4611062  0.5872868    0.00000       Uiso       1.00
      C281          C  0.7690721  0.4627225  0.5661940    0.00000       Uiso       1.00
      C282          C  0.7919112  0.4661168  0.5564132    0.00000       Uiso       1.00
      C283          C  0.7690721  0.4627225  0.5985684    0.00000       Uiso       1.00
      C284          C  0.7919854  0.4662588  0.5888788    0.00000       Uiso       1.00
      C285          C  0.8039674  0.4680870  0.5675603    0.00000       Uiso       1.00
      H151          H  0.0110830  0.4019455  0.5330996    0.00000       Uiso       1.00
      H152          H  0.7599992  0.4613858  0.6157634    0.00000       Uiso       1.00
      H153          H  0.7599992  0.4613858  0.5567353    0.00000       Uiso       1.00
      C286          C  0.0584491  0.4127178  0.2864829    0.00000       Uiso       1.00
      C287          C  0.0373563  0.4014361  0.2979103    0.00000       Uiso       1.00
      C288          C  0.0276673  0.4111276  0.3208231    0.00000       Uiso       1.00
      C289          C  0.0697307  0.4338106  0.2979103    0.00000       Uiso       1.00
      C290          C  0.0600648  0.4435928  0.3207491    0.00000       Uiso       1.00
      C291          C  0.0388299  0.4324468  0.3328046    0.00000       Uiso       1.00
      H154          H  0.8000392  0.4669119  0.5399228    0.00000       Uiso       1.00
      C292          C  0.9711505  0.5000187  0.4999908    0.00000       Uiso       1.00
      H155          H  0.0869256  0.4432693  0.2888374    0.00000       Uiso       1.00
      H156          H  0.0278976  0.3842412  0.2888374    0.00000       Uiso       1.00
       S37          S  0.0758340  0.4704843  0.5309005    0.00000       Uiso       1.00
      O109          O  0.0631713  0.4772205  0.5274765    0.00000       Uiso       1.00
      O110          O  0.0811414  0.4858955  0.5504721    0.00000       Uiso       1.00
      O111          O  0.0972130  0.4695820  0.5110936    0.00000       Uiso       1.00
      H157          H  0.1056044  0.4838914  0.5095768    0.00000       Uiso       1.00
       S38          S  0.0006840  0.3953311  0.3348626    0.00000       Uiso       1.00
      O112          O  0.9939465  0.4079937  0.3576854    0.00000       Uiso       1.00
      O113          O  0.9852710  0.3900203  0.3253946    0.00000       Uiso       1.00
      O114          O  0.0015899  0.3739540  0.3323885    0.00000       Uiso       1.00
      H158          H  0.9872808  0.3655616  0.3398235    0.00000       Uiso       1.00
       S39          S  0.0020610  0.6651444  0.5295214    0.00000       Uiso       1.00
      O115          O  0.9986364  0.6423212  0.5227832    0.00000       Uiso       1.00
      O116          O  0.9836667  0.6674434  0.5303637    0.00000       Uiso       1.00
      O117          O  0.0231360  0.6753409  0.5129237    0.00000       Uiso       1.00
      H159          H  0.0216334  0.6679100  0.4986083    0.00000       Uiso       1.00
       S40          S  0.8060185  0.4691137  0.6046826    0.00000       Uiso       1.00
      O118          O  0.8288431  0.4725412  0.5920261    0.00000       Uiso       1.00
      O119          O  0.8037145  0.4875070  0.6245325    0.00000       Uiso       1.00
      O120          O  0.7958229  0.4480393  0.6104024    0.00000       Uiso       1.00
      H160          H  0.8032517  0.4495442  0.6187928    0.00000       Uiso       1.00
      C293          C  0.0282492  0.4425749  0.5278867    0.00000       Uiso       1.00
      C294          C  0.0326684  0.4656305  0.5362712    0.00000       Uiso       1.00
      C295          C  0.0230634  0.4751689  0.5324161    0.00000       Uiso       1.00
      C296          C  0.0136921  0.4293470  0.5155438    0.00000       Uiso       1.00
      C297          C  0.0038345  0.4386637  0.5117524    0.00000       Uiso       1.00
      C298          C  0.0085535  0.4616502  0.5201680    0.00000       Uiso       1.00
      H161          H  0.0102448  0.4117327  0.5084875    0.00000       Uiso       1.00
      H162          H  0.0433928  0.4762387  0.5460925    0.00000       Uiso       1.00
      C299          C  0.9990470  0.6424556  0.5574336    0.00000       Uiso       1.00
      C300          C  0.9866959  0.6287834  0.5706621    0.00000       Uiso       1.00
      C301          C  0.9829048  0.6058181  0.5613467    0.00000       Uiso       1.00
      C302          C  0.0074411  0.6322047  0.5343799    0.00000       Uiso       1.00
      C303          C  0.0035862  0.6092077  0.5248438    0.00000       Uiso       1.00
      C304          C  0.9913293  0.5959679  0.5383613    0.00000       Uiso       1.00
      H163          H  0.0172703  0.6421383  0.5237682    0.00000       Uiso       1.00
      H164          H  0.9796326  0.6358941  0.5882768    0.00000       Uiso       1.00
      C305          C  0.8287137  0.4721278  0.5570886    0.00000       Uiso       1.00
      C306          C  0.8423836  0.4844714  0.5425310    0.00000       Uiso       1.00
      C307          C  0.8653515  0.4882631  0.5326703    0.00000       Uiso       1.00
      C308          C  0.8389661  0.4637429  0.5615059    0.00000       Uiso       1.00
      C309          C  0.8619629  0.4675991  0.5519008    0.00000       Uiso       1.00
      C310          C  0.8752035  0.4798463  0.5373905    0.00000       Uiso       1.00
      H165          H  0.8290350  0.4539204  0.5722268    0.00000       Uiso       1.00
      H166          H  0.8352653  0.4915267  0.5390875    0.00000       Uiso       1.00
      C311          C  0.0285922  0.4429181  0.3575507    0.00000       Uiso       1.00
      C312          C  0.0055378  0.4385061  0.3678017    0.00000       Uiso       1.00
      C313          C  0.9959990  0.4481091  0.3908002    0.00000       Uiso       1.00
      C314          C  0.0418197  0.4574688  0.3712232    0.00000       Uiso       1.00
      C315          C  0.0325031  0.4673269  0.3941887    0.00000       Uiso       1.00
      C316          C  0.0095177  0.4626127  0.4040398    0.00000       Uiso       1.00
      H167          H  0.0594334  0.4609111  0.3641117    0.00000       Uiso       1.00
      H168          H  0.9949326  0.4277892  0.3578605    0.00000       Uiso       1.00
      C317          C  0.9730948  0.4434316  0.4008811    0.00000       Uiso       1.00
      C318          C  0.9637262  0.4527819  0.4237444    0.00000       Uiso       1.00
      C319          C  0.0117386  0.5991277  0.5019391    0.00000       Uiso       1.00
      C320          C  0.0075974  0.5762653  0.4925705    0.00000       Uiso       1.00
      H169          H  0.0212272  0.6089401  0.4912070    0.00000       Uiso       1.00
      H170          H  0.9623666  0.4323752  0.3910657    0.00000       Uiso       1.00
       S41          S  0.0182368  0.5641786  0.4629681    0.00000       Uiso       1.00
      O121          O  0.0121246  0.5409443  0.4571048    0.00000       Uiso       1.00
      O122          O  0.0093035  0.5684191  0.4529148    0.00000       Uiso       1.00
      O123          O  0.0435005  0.5743868  0.4549324    0.00000       Uiso       1.00
      H171          H  0.0491559  0.5679907  0.4392309    0.00000       Uiso       1.00
       S42          S  0.9341239  0.4459042  0.4358378    0.00000       Uiso       1.00
      O124          O  0.9282653  0.4571630  0.4590721    0.00000       Uiso       1.00
      O125          O  0.9266573  0.4524231  0.4263636    0.00000       Uiso       1.00
      O126          O  0.9232975  0.4208905  0.4312712    0.00000       Uiso       1.00
      H172          H  0.9075952  0.4172280  0.4376730    0.00000       Uiso       1.00
      C321          C  0.9988748  0.4711424  0.5161809    0.00000       Uiso       1.00
      C322          C  0.0039116  0.4941469  0.5242103    0.00000       Uiso       1.00
      C323          C  0.9947543  0.5035408  0.5196559    0.00000       Uiso       1.00
      C324          C  0.9844504  0.4576323  0.5038755    0.00000       Uiso       1.00
      C325          C  0.9751792  0.4671748  0.4996906    0.00000       Uiso       1.00
      C326          C  0.9799500  0.4903061  0.5074832    0.00000       Uiso       1.00
      H173          H  0.9609786  0.5266289  0.5434497    0.00000       Uiso       1.00
      H174          H  0.9384832  0.4748302  0.5287130    0.00000       Uiso       1.00
      C327          C  0.9873440  0.5728114  0.5288686    0.00000       Uiso       1.00
      C328          C  0.9750307  0.5595899  0.5423785    0.00000       Uiso       1.00
      C329          C  0.9708465  0.5365905  0.5328360    0.00000       Uiso       1.00
      C330          C  0.9953833  0.5628731  0.5058636    0.00000       Uiso       1.00
      C331          C  0.9908270  0.5397672  0.4964698    0.00000       Uiso       1.00
      C332          C  0.9786438  0.5260233  0.5097044    0.00000       Uiso       1.00
      H175          H  0.9998648  0.5212616  0.5251848    0.00000       Uiso       1.00
      H176          H  0.0146114  0.5067149  0.4733747    0.00000       Uiso       1.00
      C333          C  0.8983591  0.4838297  0.5277138    0.00000       Uiso       1.00
      C334          C  0.9115795  0.4961332  0.5132865    0.00000       Uiso       1.00
      C335          C  0.9345786  0.5003169  0.5040153    0.00000       Uiso       1.00
      C336          C  0.9082971  0.4757996  0.5327524    0.00000       Uiso       1.00
      C337          C  0.9314030  0.4803557  0.5235978    0.00000       Uiso       1.00
      C338          C  0.9451458  0.4925269  0.5087911    0.00000       Uiso       1.00
      H177          H  0.9499043  0.4713129  0.4673281    0.00000       Uiso       1.00
      H178          H  0.9644652  0.4565603  0.4898300    0.00000       Uiso       1.00
      C339          C  0.0000257  0.4722907  0.4271970    0.00000       Uiso       1.00
      C340          C  0.9770192  0.4672576  0.4371367    0.00000       Uiso       1.00
      C341          C  0.9676258  0.4764143  0.4602438    0.00000       Uiso       1.00
      C342          C  0.0135369  0.4867157  0.4404172    0.00000       Uiso       1.00
      C343          C  0.0039952  0.4959905  0.4634165    0.00000       Uiso       1.00
      C344          C  0.9808624  0.4912179  0.4739856    0.00000       Uiso       1.00
      H179          H  0.9445422  0.5101696  0.4932928    0.00000       Uiso       1.00
      H180          H  0.9963644  0.5326864  0.4787481    0.00000       Uiso       1.00
      C345          C  0.8949050  0.4635957  0.5472335    0.00000       Uiso       1.00
      C346          C  0.8720422  0.4594543  0.5565841    0.00000       Uiso       1.00
      C347          C  0.9015538  0.5043599  0.5086408    0.00000       Uiso       1.00
      C348          C  0.8787482  0.5005014  0.5182289    0.00000       Uiso       1.00
      C349          C  0.0183933  0.5074414  0.5364141    0.00000       Uiso       1.00
      C350          C  0.0277467  0.4980741  0.5405569    0.00000       Uiso       1.00
      C351          C  0.9798032  0.4347332  0.4956505    0.00000       Uiso       1.00
      C352          C  0.9893913  0.4253766  0.4995142    0.00000       Uiso       1.00
      C353          C  0.0364353  0.4913594  0.4303900    0.00000       Uiso       1.00
      C354          C  0.0457897  0.4817676  0.4075834    0.00000       Uiso       1.00
      C355          C  0.9667963  0.5696158  0.5652769    0.00000       Uiso       1.00
      C356          C  0.9706585  0.5924229  0.5746328    0.00000       Uiso       1.00
      H181          H  0.9572063  0.5597796  0.5760041    0.00000       Uiso       1.00
      H182          H  0.9113886  0.5139424  0.4976608    0.00000       Uiso       1.00
      H183          H  0.8622292  0.4499734  0.5676473    0.00000       Uiso       1.00
      H184          H  0.9688230  0.4240029  0.4860677    0.00000       Uiso       1.00
      H185          H  0.0388107  0.5088018  0.5500377    0.00000       Uiso       1.00
      H186          H  0.0471631  0.5023412  0.4402249    0.00000       Uiso       1.00
       S43          S  0.9069938  0.4529707  0.5541232    0.00000       Uiso       1.00
      O127          O  0.8901334  0.4412403  0.5690027    0.00000       Uiso       1.00
      O128          O  0.9176061  0.4384516  0.5345165    0.00000       Uiso       1.00
      O129          O  0.9240350  0.4722170  0.5650508    0.00000       Uiso       1.00
      H187          H  0.9304612  0.4665940  0.5687022    0.00000       Uiso       1.00
       S44          S  0.8667601  0.5116354  0.5117919    0.00000       Uiso       1.00
      O130          O  0.8836221  0.5233214  0.4968742    0.00000       Uiso       1.00
      O131          O  0.8506585  0.4940550  0.5018619    0.00000       Uiso       1.00
      O132          O  0.8557141  0.5274364  0.5330972    0.00000       Uiso       1.00
      H188          H  0.8493435  0.5333424  0.5296978    0.00000       Uiso       1.00
       S45          S  0.9595164  0.6044126  0.6041908    0.00000       Uiso       1.00
      O133          O  0.9478238  0.5875513  0.6139343    0.00000       Uiso       1.00
      O134          O  0.9770928  0.6205140  0.6126481    0.00000       Uiso       1.00
      O135          O  0.9437199  0.6154591  0.6097229    0.00000       Uiso       1.00
      H189          H  0.9378097  0.6218304  0.6253980    0.00000       Uiso       1.00
       S46          S  0.0753485  0.4882012  0.3955913    0.00000       Uiso       1.00
      O136          O  0.0850932  0.5031179  0.4124512    0.00000       Uiso       1.00
      O137          O  0.0804902  0.4684152  0.3853348    0.00000       Uiso       1.00
      O138          O  0.0844504  0.4988939  0.3782502    0.00000       Uiso       1.00
      H190          H  0.1001273  0.5023033  0.3718753    0.00000       Uiso       1.00
       S47          S  0.0252829  0.5370450  0.5470393    0.00000       Uiso       1.00
      O139          O  0.0401629  0.5467945  0.5587692    0.00000       Uiso       1.00
      O140          O  0.0354303  0.5451429  0.5291665    0.00000       Uiso       1.00
      O141          O  0.0041692  0.5429963  0.5626751    0.00000       Uiso       1.00
      H191          H  0.0078087  0.5586959  0.5683110    0.00000       Uiso       1.00
       S48          S  0.9829561  0.3958177  0.4883876    0.00000       Uiso       1.00
      O142          O  0.9680377  0.3860695  0.4767007    0.00000       Uiso       1.00
      O143          O  0.0027418  0.3906742  0.4737170    0.00000       Uiso       1.00
      O144          O  0.9722649  0.3867217  0.5073236    0.00000       Uiso       1.00
      H192          H  0.9688547  0.3710448  0.5014344    0.00000       Uiso       1.00
      C357          C  0.2865115  0.4127177  0.0584203    0.00000       Uiso       1.00
      C358          C  0.2979389  0.4338105  0.0697020    0.00000       Uiso       1.00
      C359          C  0.3208518  0.4434993  0.0600106    0.00000       Uiso       1.00
      C360          C  0.2979389  0.4014360  0.0373276    0.00000       Uiso       1.00
      C361          C  0.3207779  0.4111018  0.0275458    0.00000       Uiso       1.00
      C362          C  0.3328339  0.4323368  0.0386916    0.00000       Uiso       1.00
      H193          H  0.5399495  0.6711295  0.0042320    0.00000       Uiso       1.00
      H194          H  0.2888661  0.3842411  0.0278689    0.00000       Uiso       1.00
      H195          H  0.2888661  0.4432692  0.0868969    0.00000       Uiso       1.00
      C363          C  0.5873156  0.7135220  0.0100320    0.00000       Uiso       1.00
      C364          C  0.5662228  0.7020946  0.0084157    0.00000       Uiso       1.00
      C365          C  0.5564408  0.6792557  0.0050240    0.00000       Uiso       1.00
      C366          C  0.5985973  0.7020946  0.0084157    0.00000       Uiso       1.00
      C367          C  0.5889058  0.6791816  0.0048828    0.00000       Uiso       1.00
      C368          C  0.5675871  0.6672005  0.0030567    0.00000       Uiso       1.00
      H196          H  0.5331289  0.4600841  0.0691926    0.00000       Uiso       1.00
      H197          H  0.6157922  0.7111673  0.0097523    0.00000       Uiso       1.00
      H198          H  0.5567641  0.7111673  0.0097523    0.00000       Uiso       1.00
      C369          C  0.5873157  0.4611062  0.7576157    0.00000       Uiso       1.00
      C370          C  0.5985974  0.4627224  0.7690431    0.00000       Uiso       1.00
      C371          C  0.5889335  0.4661168  0.7918823    0.00000       Uiso       1.00
      C372          C  0.5662230  0.4627224  0.7690431    0.00000       Uiso       1.00
      C373          C  0.5565357  0.4662588  0.7919564    0.00000       Uiso       1.00
      C374          C  0.5677004  0.4680870  0.8039384    0.00000       Uiso       1.00
      H199          H  0.3289043  0.4019455  0.0110542    0.00000       Uiso       1.00
      H200          H  0.5567642  0.4613858  0.7599703    0.00000       Uiso       1.00
      H201          H  0.6157923  0.4613858  0.7599703    0.00000       Uiso       1.00
      C375          C  0.5389271  0.4127178  0.0584203    0.00000       Uiso       1.00
      C376          C  0.5373109  0.4014361  0.0373275    0.00000       Uiso       1.00
      C377          C  0.5337785  0.4111276  0.0276386    0.00000       Uiso       1.00
      C378          C  0.5373109  0.4338106  0.0697020    0.00000       Uiso       1.00
      C379          C  0.5339203  0.4435928  0.0600360    0.00000       Uiso       1.00
      C380          C  0.5319537  0.4324468  0.0388011    0.00000       Uiso       1.00
      H202          H  0.5980911  0.4669119  0.8000102    0.00000       Uiso       1.00
      C381          C  0.5000183  0.5000186  0.9711215    0.00000       Uiso       1.00
      H203          H  0.5386475  0.4432693  0.0868969    0.00000       Uiso       1.00
      H204          H  0.5386475  0.3842412  0.0278688    0.00000       Uiso       1.00
       S49          S  0.3348911  0.4704842  0.0758052    0.00000       Uiso       1.00
      O145          O  0.3577140  0.4772204  0.0631425    0.00000       Uiso       1.00
      O146          O  0.3254233  0.4858955  0.0811126    0.00000       Uiso       1.00
      O147          O  0.3324167  0.4695820  0.0971842    0.00000       Uiso       1.00
      H205          H  0.3398516  0.4838914  0.1055756    0.00000       Uiso       1.00
       S50          S  0.5309258  0.3953311  0.0006553    0.00000       Uiso       1.00
      O148          O  0.5275028  0.4079936  0.9939175    0.00000       Uiso       1.00
      O149          O  0.5504957  0.3900203  0.9852421    0.00000       Uiso       1.00
      O150          O  0.5111170  0.3739540  0.0015611    0.00000       Uiso       1.00
      H206          H  0.5095984  0.3655615  0.9872518    0.00000       Uiso       1.00
       S51          S  0.6047034  0.6651445  0.0020323    0.00000       Uiso       1.00
      O151          O  0.5920427  0.6423212  0.9986075    0.00000       Uiso       1.00
      O152          O  0.6245540  0.6674434  0.9836378    0.00000       Uiso       1.00
      O153          O  0.6104225  0.6753410  0.0231072    0.00000       Uiso       1.00
      H207          H  0.6188097  0.6679101  0.0216047    0.00000       Uiso       1.00
       S52          S  0.5295537  0.4691137  0.8059896    0.00000       Uiso       1.00
      O154          O  0.5228130  0.4725412  0.8288141    0.00000       Uiso       1.00
      O155          O  0.5304009  0.4875070  0.8036856    0.00000       Uiso       1.00
      O156          O  0.5129550  0.4480393  0.7957940    0.00000       Uiso       1.00
      H208          H  0.4986407  0.4495442  0.8032228    0.00000       Uiso       1.00
      C382          C  0.3575803  0.4425749  0.0282204    0.00000       Uiso       1.00
      C383          C  0.3678322  0.4656305  0.0326396    0.00000       Uiso       1.00
      C384          C  0.3908307  0.4751689  0.0230346    0.00000       Uiso       1.00
      C385          C  0.3712524  0.4293470  0.0136633    0.00000       Uiso       1.00
      C386          C  0.3942181  0.4386637  0.0038057    0.00000       Uiso       1.00
      C387          C  0.4040700  0.4616502  0.0085248    0.00000       Uiso       1.00
      H209          H  0.3641418  0.4117326  0.0102160    0.00000       Uiso       1.00
      H210          H  0.3578947  0.4762387  0.0433641    0.00000       Uiso       1.00
      C388          C  0.5571159  0.6424555  0.9990181    0.00000       Uiso       1.00
      C389          C  0.5425664  0.6287833  0.9866669    0.00000       Uiso       1.00
      C390          C  0.5327078  0.6058180  0.9828758    0.00000       Uiso       1.00
      C391          C  0.5615250  0.6322047  0.0074123    0.00000       Uiso       1.00
      C392          C  0.5519190  0.6092077  0.0035574    0.00000       Uiso       1.00
      C393          C  0.5374183  0.5959679  0.9913004    0.00000       Uiso       1.00
      H211          H  0.5722411  0.6421383  0.0172416    0.00000       Uiso       1.00
      H212          H  0.5391257  0.6358941  0.9796036    0.00000       Uiso       1.00
      C394          C  0.5574666  0.4721278  0.8286847    0.00000       Uiso       1.00
      C395          C  0.5706978  0.4844713  0.8423547    0.00000       Uiso       1.00
      C396          C  0.5613822  0.4882630  0.8653226    0.00000       Uiso       1.00
      C397          C  0.5344121  0.4637429  0.8389370    0.00000       Uiso       1.00
      C398          C  0.5248764  0.4675990  0.8619340    0.00000       Uiso       1.00
      C399          C  0.5383934  0.4798463  0.8751745    0.00000       Uiso       1.00
      H213          H  0.5237996  0.4539203  0.8290061    0.00000       Uiso       1.00
      H214          H  0.5883149  0.4915266  0.8352363    0.00000       Uiso       1.00
      C400          C  0.5279164  0.4429180  0.0285635    0.00000       Uiso       1.00
      C401          C  0.5363079  0.4385060  0.0055090    0.00000       Uiso       1.00
      C402          C  0.5324510  0.4481091  0.9959700    0.00000       Uiso       1.00
      C403          C  0.5155672  0.4574688  0.0417910    0.00000       Uiso       1.00
      C404          C  0.5117764  0.4673269  0.0324744    0.00000       Uiso       1.00
      C405          C  0.5201964  0.4626127  0.0094890    0.00000       Uiso       1.00
      H215          H  0.5085073  0.4609111  0.0594047    0.00000       Uiso       1.00
      H216          H  0.5461371  0.4277891  0.9949036    0.00000       Uiso       1.00
      C406          C  0.5405968  0.4434316  0.9730658    0.00000       Uiso       1.00
      C407          C  0.5364524  0.4527819  0.9636973    0.00000       Uiso       1.00
      C408          C  0.5565914  0.5991277  0.0117099    0.00000       Uiso       1.00
      C409          C  0.5472388  0.5762653  0.0075686    0.00000       Uiso       1.00
      H217          H  0.5676471  0.6089401  0.0211985    0.00000       Uiso       1.00
      H218          H  0.5500840  0.4323752  0.9623377    0.00000       Uiso       1.00
       S53          S  0.5541149  0.5641786  0.0182081    0.00000       Uiso       1.00
      O157          O  0.5428562  0.5409443  0.0120959    0.00000       Uiso       1.00
      O158          O  0.5773422  0.5684191  0.0092748    0.00000       Uiso       1.00
      O159          O  0.5470952  0.5743868  0.0434718    0.00000       Uiso       1.00
      H219          H  0.5507451  0.5679906  0.0491272    0.00000       Uiso       1.00
       S54          S  0.5470835  0.4459042  0.9340949    0.00000       Uiso       1.00
      O160          O  0.5409667  0.4571629  0.9282363    0.00000       Uiso       1.00
      O161          O  0.5705432  0.4524230  0.9266284    0.00000       Uiso       1.00
      O162          O  0.5374627  0.4208904  0.9232686    0.00000       Uiso       1.00
      H220          H  0.5431008  0.4172280  0.9075662    0.00000       Uiso       1.00
      C410          C  0.4272277  0.4711423  0.9988459    0.00000       Uiso       1.00
      C411          C  0.4371664  0.4941469  0.0038828    0.00000       Uiso       1.00
      C412          C  0.4602717  0.5035408  0.9947253    0.00000       Uiso       1.00
      C413          C  0.4404475  0.4576322  0.9844214    0.00000       Uiso       1.00
      C414          C  0.4634461  0.4671747  0.9751502    0.00000       Uiso       1.00
      C415          C  0.4740140  0.4903060  0.9799210    0.00000       Uiso       1.00
      H221          H  0.4933417  0.5266288  0.9609496    0.00000       Uiso       1.00
      H222          H  0.4787749  0.4748302  0.9384543    0.00000       Uiso       1.00
      C416          C  0.5277398  0.5728114  0.9873150    0.00000       Uiso       1.00
      C417          C  0.5133217  0.5595898  0.9750018    0.00000       Uiso       1.00
      C418          C  0.5040489  0.5365904  0.9708176    0.00000       Uiso       1.00
      C419          C  0.5327672  0.5628731  0.9953544    0.00000       Uiso       1.00
      C420          C  0.5236113  0.5397671  0.9907981    0.00000       Uiso       1.00
      C421          C  0.5088161  0.5260233  0.9786149    0.00000       Uiso       1.00
      H223          H  0.4673530  0.5212615  0.9998359    0.00000       Uiso       1.00
      H224          H  0.4898702  0.5067149  0.0145826    0.00000       Uiso       1.00
      C422          C  0.5288978  0.4838296  0.8983301    0.00000       Uiso       1.00
      C423          C  0.5424082  0.4961332  0.9115506    0.00000       Uiso       1.00
      C424          C  0.5328640  0.5003168  0.9345496    0.00000       Uiso       1.00
      C425          C  0.5058911  0.4757996  0.9082682    0.00000       Uiso       1.00
      C426          C  0.4964958  0.4803557  0.9313741    0.00000       Uiso       1.00
      C427          C  0.5097311  0.4925268  0.9451168    0.00000       Uiso       1.00
      H225          H  0.5252215  0.4713128  0.9498753    0.00000       Uiso       1.00
      H226          H  0.4734061  0.4565602  0.9644363    0.00000       Uiso       1.00
      C428          C  0.5162096  0.4722907  0.9999962    0.00000       Uiso       1.00
      C429          C  0.5242428  0.4672576  0.9769902    0.00000       Uiso       1.00
      C430          C  0.5196859  0.4764143  0.9675968    0.00000       Uiso       1.00
      C431          C  0.5039030  0.4867157  0.0135081    0.00000       Uiso       1.00
      C432          C  0.4997201  0.4959905  0.0039664    0.00000       Uiso       1.00
      C433          C  0.5075109  0.4912179  0.9808335    0.00000       Uiso       1.00
      H227          H  0.5434756  0.5101695  0.9445133    0.00000       Uiso       1.00
      H228          H  0.5287150  0.5326864  0.9963354    0.00000       Uiso       1.00
      C434          C  0.4925983  0.4635957  0.8948761    0.00000       Uiso       1.00
      C435          C  0.5019690  0.4594542  0.8720132    0.00000       Uiso       1.00
      C436          C  0.5653064  0.5043598  0.9015248    0.00000       Uiso       1.00
      C437          C  0.5746652  0.5005013  0.8787193    0.00000       Uiso       1.00
      C438          C  0.4237753  0.5074414  0.0183645    0.00000       Uiso       1.00
      C439          C  0.4009118  0.4980740  0.0277179    0.00000       Uiso       1.00
      C440          C  0.4304206  0.4347331  0.9797742    0.00000       Uiso       1.00
      C441          C  0.4076123  0.4253766  0.9893622    0.00000       Uiso       1.00
      C442          C  0.4956754  0.4913594  0.0364065    0.00000       Uiso       1.00
      C443          C  0.4995358  0.4817676  0.0457610    0.00000       Uiso       1.00
      C444          C  0.5086836  0.5696158  0.9667674    0.00000       Uiso       1.00
      C445          C  0.5182726  0.5924228  0.9706296    0.00000       Uiso       1.00
      H229          H  0.4977102  0.5597796  0.9571774    0.00000       Uiso       1.00
      H230          H  0.5760341  0.5139423  0.9113596    0.00000       Uiso       1.00
      H231          H  0.4912379  0.4499734  0.8622002    0.00000       Uiso       1.00
      H232          H  0.4402532  0.4240029  0.9687941    0.00000       Uiso       1.00
      H233          H  0.3910947  0.5088018  0.0387820    0.00000       Uiso       1.00
      H234          H  0.4860946  0.5023412  0.0471343    0.00000       Uiso       1.00
       S55          S  0.4629947  0.4529707  0.9069649    0.00000       Uiso       1.00
      O163          O  0.4532452  0.4412403  0.8901045    0.00000       Uiso       1.00
      O164          O  0.4574701  0.4384516  0.9175771    0.00000       Uiso       1.00
      O165          O  0.4542722  0.4722169  0.9240060    0.00000       Uiso       1.00
      H235          H  0.4385718  0.4665940  0.9304321    0.00000       Uiso       1.00
       S56          S  0.6042245  0.5116354  0.8667310    0.00000       Uiso       1.00
      O166          O  0.6139661  0.5233214  0.8835931    0.00000       Uiso       1.00
      O167          O  0.6126757  0.4940550  0.8506295    0.00000       Uiso       1.00
      O168          O  0.6097662  0.5274364  0.8556851    0.00000       Uiso       1.00
      H236          H  0.6254420  0.5333424  0.8493146    0.00000       Uiso       1.00
       S57          S  0.5118464  0.6044125  0.9594874    0.00000       Uiso       1.00
      O169          O  0.4969342  0.5875512  0.9477948    0.00000       Uiso       1.00
      O170          O  0.5019141  0.6205139  0.9770638    0.00000       Uiso       1.00
      O171          O  0.5331573  0.6154590  0.9436910    0.00000       Uiso       1.00
      H237          H  0.5297637  0.6218303  0.9377807    0.00000       Uiso       1.00
       S58          S  0.4884027  0.4882012  0.0753198    0.00000       Uiso       1.00
      O172          O  0.4767148  0.5031179  0.0850644    0.00000       Uiso       1.00
      O173          O  0.4737315  0.4684152  0.0804615    0.00000       Uiso       1.00
      O174          O  0.5073346  0.4988939  0.0844217    0.00000       Uiso       1.00
      H238          H  0.5014420  0.5023033  0.1000986    0.00000       Uiso       1.00
       S59          S  0.4358641  0.5370450  0.0252541    0.00000       Uiso       1.00
      O175          O  0.4190037  0.5467945  0.0401342    0.00000       Uiso       1.00
      O176          O  0.4516874  0.5451429  0.0354016    0.00000       Uiso       1.00
      O177          O  0.4472934  0.5429964  0.0041404    0.00000       Uiso       1.00
      H239          H  0.4537175  0.5586959  0.0077799    0.00000       Uiso       1.00
       S60          S  0.3956151  0.3958177  0.9829271    0.00000       Uiso       1.00
      O178          O  0.4124720  0.3860694  0.9680088    0.00000       Uiso       1.00
      O179          O  0.3853568  0.3906741  0.0027130    0.00000       Uiso       1.00
      O180          O  0.3782743  0.3867216  0.9722359    0.00000       Uiso       1.00
      H240          H  0.3718966  0.3710447  0.9688258    0.00000       Uiso       1.00
      C446          C  0.0584491  0.1846552  0.0584203    0.00000       Uiso       1.00
      C447          C  0.0697308  0.1732278  0.0373275    0.00000       Uiso       1.00
      C448          C  0.0600393  0.1503149  0.0276387    0.00000       Uiso       1.00
      C449          C  0.0373563  0.1732278  0.0697020    0.00000       Uiso       1.00
      C450          C  0.0275745  0.1503888  0.0600363    0.00000       Uiso       1.00
      C451          C  0.0387204  0.1383329  0.0388012    0.00000       Uiso       1.00
      H241          H  0.0042607  0.9312165  0.8000078    0.00000       Uiso       1.00
      H242          H  0.0278976  0.1823006  0.0868969    0.00000       Uiso       1.00
      H243          H  0.0869257  0.1823006  0.0278688    0.00000       Uiso       1.00
      C452          C  0.0100607  0.8838504  0.7576154    0.00000       Uiso       1.00
      C453          C  0.0084444  0.9049432  0.7690428    0.00000       Uiso       1.00
      C454          C  0.0050527  0.9147251  0.7918816    0.00000       Uiso       1.00
      C455          C  0.0084444  0.8725687  0.7690428    0.00000       Uiso       1.00
      C456          C  0.0049115  0.8822601  0.7919556    0.00000       Uiso       1.00
      C457          C  0.0030854  0.9035788  0.8039367    0.00000       Uiso       1.00
      H244          H  0.0692211  0.9380372  0.0110539    0.00000       Uiso       1.00
      H245          H  0.0097810  0.8553737  0.7599699    0.00000       Uiso       1.00
      H246          H  0.0097810  0.9144018  0.7599699    0.00000       Uiso       1.00
      C458          C  0.7576444  0.8838505  0.0100318    0.00000       Uiso       1.00
      C459          C  0.7690718  0.8725688  0.0084155    0.00000       Uiso       1.00
      C460          C  0.7919110  0.8822328  0.0050212    0.00000       Uiso       1.00
      C461          C  0.7690718  0.9049433  0.0084155    0.00000       Uiso       1.00
      C462          C  0.7919851  0.9146305  0.0048792    0.00000       Uiso       1.00
      C463          C  0.8039672  0.9034659  0.0030510    0.00000       Uiso       1.00
      H247          H  0.0110830  0.1422625  0.0691925    0.00000       Uiso       1.00
      H248          H  0.7599990  0.9144020  0.0097522    0.00000       Uiso       1.00
      H249          H  0.7599990  0.8553739  0.0097522    0.00000       Uiso       1.00
      C464          C  0.0584488  0.9322389  0.0584202    0.00000       Uiso       1.00
      C465          C  0.0373560  0.9338552  0.0697019    0.00000       Uiso       1.00
      C466          C  0.0276671  0.9373875  0.0600104    0.00000       Uiso       1.00
      C467          C  0.0697305  0.9338552  0.0373274    0.00000       Uiso       1.00
      C468          C  0.0600645  0.9372458  0.0275453    0.00000       Uiso       1.00
      C469          C  0.0388296  0.9392124  0.0386912    0.00000       Uiso       1.00
      H250          H  0.8000389  0.8730752  0.0042260    0.00000       Uiso       1.00
      C470          C  0.9711506  0.9711479  0.9711186    0.00000       Uiso       1.00
      H251          H  0.0869254  0.9325185  0.0278687    0.00000       Uiso       1.00
      H252          H  0.0278973  0.9325185  0.0868968    0.00000       Uiso       1.00
       S61          S  0.0758339  0.1362756  0.0006538    0.00000       Uiso       1.00
      O181          O  0.0631715  0.1134527  0.9939168    0.00000       Uiso       1.00
      O182          O  0.0811416  0.1457434  0.9852418    0.00000       Uiso       1.00
      O183          O  0.0972130  0.1387501  0.0015560    0.00000       Uiso       1.00
      H253          H  0.1056046  0.1313151  0.9872459    0.00000       Uiso       1.00
       S62          S  0.0006838  0.9402403  0.0758069    0.00000       Uiso       1.00
      O184          O  0.9939463  0.9436634  0.0631443    0.00000       Uiso       1.00
      O185          O  0.9852708  0.9206706  0.0811177    0.00000       Uiso       1.00
      O186          O  0.0015896  0.9600492  0.0971840    0.00000       Uiso       1.00
      H254          H  0.9872805  0.9615679  0.1055764    0.00000       Uiso       1.00
       S63          S  0.0020610  0.8664626  0.8059928    0.00000       Uiso       1.00
      O187          O  0.9986364  0.8791235  0.8288161    0.00000       Uiso       1.00
      O188          O  0.9836667  0.8466122  0.8036939    0.00000       Uiso       1.00
      O189          O  0.0231359  0.8607435  0.7957964    0.00000       Uiso       1.00
      H255          H  0.0216334  0.8523563  0.8032272    0.00000       Uiso       1.00
       S64          S  0.8060184  0.9416126  0.0020243    0.00000       Uiso       1.00
      O190          O  0.8288431  0.9483532  0.9985961    0.00000       Uiso       1.00
      O191          O  0.8037145  0.9407652  0.9836302    0.00000       Uiso       1.00
      O192          O  0.7958227  0.9582112  0.0230987    0.00000       Uiso       1.00
      H256          H  0.8032515  0.9725256  0.0215938    0.00000       Uiso       1.00
      C471          C  0.0282491  0.1135864  0.0285631    0.00000       Uiso       1.00
      C472          C  0.0326684  0.1033345  0.0055075    0.00000       Uiso       1.00
      C473          C  0.0230636  0.0803360  0.9959684    0.00000       Uiso       1.00
      C474          C  0.0136921  0.0999143  0.0417910    0.00000       Uiso       1.00
      C475          C  0.0038345  0.0769486  0.0324743    0.00000       Uiso       1.00
      C476          C  0.0085535  0.0670967  0.0094878    0.00000       Uiso       1.00
      H257          H  0.0102448  0.1070250  0.0594054    0.00000       Uiso       1.00
      H258          H  0.0433930  0.1132720  0.9948986    0.00000       Uiso       1.00
      C477          C  0.9990470  0.9140503  0.8286817    0.00000       Uiso       1.00
      C478          C  0.9866958  0.9285998  0.8423539    0.00000       Uiso       1.00
      C479          C  0.9829047  0.9384584  0.8653191    0.00000       Uiso       1.00
      C480          C  0.0074411  0.9096409  0.8389325    0.00000       Uiso       1.00
      C481          C  0.0035862  0.9192469  0.8619295    0.00000       Uiso       1.00
      C482          C  0.9913293  0.9337479  0.8751693    0.00000       Uiso       1.00
      H259          H  0.0172703  0.8989249  0.8289990    0.00000       Uiso       1.00
      H260          H  0.9796325  0.9320405  0.8352432    0.00000       Uiso       1.00
      C483          C  0.8287136  0.9136996  0.9990095    0.00000       Uiso       1.00
      C484          C  0.8423837  0.9004685  0.9866659    0.00000       Uiso       1.00
      C485          C  0.8653516  0.9097840  0.9828742    0.00000       Uiso       1.00
      C486          C  0.8389658  0.9367541  0.0073950    0.00000       Uiso       1.00
      C487          C  0.8619627  0.9462899  0.0035389    0.00000       Uiso       1.00
      C488          C  0.8752034  0.9327728  0.9912910    0.00000       Uiso       1.00
      H261          H  0.8290347  0.9473667  0.0172177    0.00000       Uiso       1.00
      H262          H  0.8352653  0.8828514  0.9796106    0.00000       Uiso       1.00
      C489          C  0.0285920  0.9432496  0.0282200    0.00000       Uiso       1.00
      C490          C  0.0055375  0.9348581  0.0326320    0.00000       Uiso       1.00
      C491          C  0.9959987  0.9387153  0.0230289    0.00000       Uiso       1.00
      C492          C  0.0418195  0.9555988  0.0136692    0.00000       Uiso       1.00
      C493          C  0.0325029  0.9593896  0.0038111    0.00000       Uiso       1.00
      C494          C  0.0095175  0.9509696  0.0085253    0.00000       Uiso       1.00
      H263          H  0.0594332  0.9626588  0.0102269    0.00000       Uiso       1.00
      H264          H  0.9949324  0.9250292  0.0433488    0.00000       Uiso       1.00
      C495          C  0.9730945  0.9305695  0.0277064    0.00000       Uiso       1.00
      C496          C  0.9637260  0.9347139  0.0183560    0.00000       Uiso       1.00
      C497          C  0.0117386  0.9145746  0.8720096    0.00000       Uiso       1.00
      C498          C  0.0075973  0.9239272  0.8948719    0.00000       Uiso       1.00
      H265          H  0.0212272  0.9035189  0.8621972    0.00000       Uiso       1.00
      H266          H  0.9623663  0.9210823  0.0387628    0.00000       Uiso       1.00
       S65          S  0.0182368  0.9170511  0.9069587    0.00000       Uiso       1.00
      O193          O  0.0121246  0.9283099  0.9301930    0.00000       Uiso       1.00
      O194          O  0.0093035  0.8938238  0.9027182    0.00000       Uiso       1.00
      O195          O  0.0435005  0.9240708  0.8967505    0.00000       Uiso       1.00
      H267          H  0.0491559  0.9204209  0.9031466    0.00000       Uiso       1.00
       S66          S  0.9341237  0.9240828  0.0252338    0.00000       Uiso       1.00
      O196          O  0.9282650  0.9301996  0.0139750    0.00000       Uiso       1.00
      O197          O  0.9266571  0.9006231  0.0187149    0.00000       Uiso       1.00
      O198          O  0.9232973  0.9337035  0.0502475    0.00000       Uiso       1.00
      H268          H  0.9075949  0.9280654  0.0539100    0.00000       Uiso       1.00
      C499          C  0.9988750  0.0439392  0.9999949    0.00000       Uiso       1.00
      C500          C  0.0039118  0.0340003  0.9769903    0.00000       Uiso       1.00
      C501          C  0.9947544  0.0108952  0.9675965    0.00000       Uiso       1.00
      C502          C  0.9844503  0.0307195  0.0135057    0.00000       Uiso       1.00
      C503          C  0.9751791  0.0077209  0.0039632    0.00000       Uiso       1.00
      C504          C  0.9799500  0.9971523  0.9808312    0.00000       Uiso       1.00
      H269          H  0.9609786  0.9778246  0.9445084    0.00000       Uiso       1.00
      H270          H  0.9384833  0.9923913  0.9963071    0.00000       Uiso       1.00
      C505          C  0.9873440  0.9434264  0.8983259    0.00000       Uiso       1.00
      C506          C  0.9750307  0.9578445  0.9115474    0.00000       Uiso       1.00
      C507          C  0.9708465  0.9671173  0.9345468    0.00000       Uiso       1.00
      C508          C  0.9953833  0.9383990  0.9082642    0.00000       Uiso       1.00
      C509          C  0.9908271  0.9475549  0.9313701    0.00000       Uiso       1.00
      C510          C  0.9786439  0.9623501  0.9451139    0.00000       Uiso       1.00
      H271          H  0.9998651  0.0038140  0.9498757    0.00000       Uiso       1.00
      H272          H  0.0146114  0.9812958  0.9644224    0.00000       Uiso       1.00
      C511          C  0.8983591  0.9422684  0.9873076    0.00000       Uiso       1.00
      C512          C  0.9115795  0.9287580  0.9750040    0.00000       Uiso       1.00
      C513          C  0.9345787  0.9383023  0.9708204    0.00000       Uiso       1.00
      C514          C  0.9082971  0.9652750  0.9953377    0.00000       Uiso       1.00
      C515          C  0.9314030  0.9746704  0.9907815    0.00000       Uiso       1.00
      C516          C  0.9451457  0.9614351  0.9786104    0.00000       Uiso       1.00
      H273          H  0.9499042  0.9459447  0.9998245    0.00000       Uiso       1.00
      H274          H  0.9644650  0.9977602  0.0145778    0.00000       Uiso       1.00
      C517          C  0.0000256  0.9549567  0.9988465    0.00000       Uiso       1.00
      C518          C  0.9770190  0.9469235  0.0038804    0.00000       Uiso       1.00
      C519          C  0.9676257  0.9514804  0.9947230    0.00000       Uiso       1.00
      C520          C  0.0135369  0.9672630  0.9844216    0.00000       Uiso       1.00
      C521          C  0.0039952  0.9714459  0.9751468    0.00000       Uiso       1.00
      C522          C  0.9808624  0.9636554  0.9799194    0.00000       Uiso       1.00
      H275          H  0.9445422  0.9276906  0.9609677    0.00000       Uiso       1.00
      H276          H  0.9963644  0.9424512  0.9384509    0.00000       Uiso       1.00
      C523          C  0.8949047  0.9785680  0.0075423    0.00000       Uiso       1.00
      C524          C  0.8720419  0.9691972  0.0116838    0.00000       Uiso       1.00
      C525          C  0.9015538  0.9058598  0.9667773    0.00000       Uiso       1.00
      C526          C  0.8787482  0.8965010  0.9706359    0.00000       Uiso       1.00
      C527          C  0.0183935  0.0473913  0.9636959    0.00000       Uiso       1.00
      C528          C  0.0277469  0.0702549  0.9730632    0.00000       Uiso       1.00
      C529          C  0.9798031  0.0407464  0.0364048    0.00000       Uiso       1.00
      C530          C  0.9893912  0.0635547  0.0457614    0.00000       Uiso       1.00
      C531          C  0.0364353  0.9754906  0.9797779    0.00000       Uiso       1.00
      C532          C  0.0457897  0.9716302  0.9893697    0.00000       Uiso       1.00
      C533          C  0.9667963  0.9624826  0.9015214    0.00000       Uiso       1.00
      C534          C  0.9706585  0.9528936  0.8787143    0.00000       Uiso       1.00
      H277          H  0.9572064  0.9734560  0.9113576    0.00000       Uiso       1.00
      H278          H  0.9113886  0.8951322  0.9571949    0.00000       Uiso       1.00
      H279          H  0.8622289  0.9799284  0.0211646    0.00000       Uiso       1.00
      H280          H  0.9688230  0.0309138  0.0471351    0.00000       Uiso       1.00
      H281          H  0.0388109  0.0800720  0.9623355    0.00000       Uiso       1.00
      H282          H  0.0471631  0.9850714  0.9687960    0.00000       Uiso       1.00
       S67          S  0.9069939  0.0081723  0.0181673    0.00000       Uiso       1.00
      O199          O  0.8901334  0.0179217  0.0298977    0.00000       Uiso       1.00
      O200          O  0.9176060  0.0136969  0.0326864    0.00000       Uiso       1.00
      O201          O  0.9240352  0.0168947  0.9989203    0.00000       Uiso       1.00
      H283          H  0.9304612  0.0325952  0.0045440    0.00000       Uiso       1.00
       S68          S  0.8667601  0.8669417  0.9595018    0.00000       Uiso       1.00
      O202          O  0.8836221  0.8572001  0.9478158    0.00000       Uiso       1.00
      O203          O  0.8506585  0.8584905  0.9770823    0.00000       Uiso       1.00
      O204          O  0.8557141  0.8614000  0.9437007    0.00000       Uiso       1.00
      H284          H  0.8493435  0.8457242  0.9377949    0.00000       Uiso       1.00
       S69          S  0.9595163  0.9593198  0.8667247    0.00000       Uiso       1.00
      O205          O  0.9478238  0.9742320  0.8835860    0.00000       Uiso       1.00
      O206          O  0.9770927  0.9692521  0.8506233    0.00000       Uiso       1.00
      O207          O  0.9437199  0.9380088  0.8556783    0.00000       Uiso       1.00
      H285          H  0.9378096  0.9414024  0.8493069    0.00000       Uiso       1.00
       S70          S  0.0753485  0.9827634  0.9829360    0.00000       Uiso       1.00
      O208          O  0.0850932  0.9944512  0.9680194    0.00000       Uiso       1.00
      O209          O  0.0804900  0.9974345  0.0027228    0.00000       Uiso       1.00
      O210          O  0.0844504  0.9638314  0.9722434    0.00000       Uiso       1.00
      H286          H  0.1001273  0.9697240  0.9688340    0.00000       Uiso       1.00
       S71          S  0.0252831  0.0353026  0.9340923    0.00000       Uiso       1.00
      O211          O  0.0401631  0.0521630  0.9243428    0.00000       Uiso       1.00
      O212          O  0.0354306  0.0194793  0.9259943    0.00000       Uiso       1.00
      O213          O  0.0041694  0.0238733  0.9281409    0.00000       Uiso       1.00
      H287          H  0.0078089  0.0174492  0.9124415    0.00000       Uiso       1.00
       S72          S  0.9829561  0.0755519  0.0753203    0.00000       Uiso       1.00
      O214          O  0.9680377  0.0586949  0.0850685    0.00000       Uiso       1.00
      O215          O  0.0027417  0.0858100  0.0804638    0.00000       Uiso       1.00
      O216          O  0.9722649  0.0928927  0.0844163    0.00000       Uiso       1.00
      H288          H  0.9688547  0.0992704  0.1000933    0.00000       Uiso       1.00
        B1          B  0.5986053  0.8725607  0.7325428    0.00000       Uiso       1.00
        B2          B  0.5986053  0.7385945  0.5985765    0.00000       Uiso       1.00
        B3          B  0.7325717  0.8725608  0.5985765    0.00000       Uiso       1.00
      C535          C  0.6235055  0.8283569  0.6619493    0.00000       Uiso       1.00
      C536          C  0.6052297  0.8476687  0.6999227    0.00000       Uiso       1.00
      H289          H  0.5893582  0.8152079  0.6830205    0.00000       Uiso       1.00
      O217          O  0.5882708  0.8500460  0.7199200    0.00000       Uiso       1.00
      C537          C  0.6046793  0.8289046  0.6814771    0.00000       Uiso       1.00
      C538          C  0.6428093  0.8091879  0.6234766    0.00000       Uiso       1.00
      C539          C  0.6234974  0.7712145  0.6052009    0.00000       Uiso       1.00
      H290          H  0.6559582  0.7881168  0.5893293    0.00000       Uiso       1.00
      O218          O  0.6211201  0.7512172  0.5882419    0.00000       Uiso       1.00
      C540          C  0.6422615  0.7896602  0.6046504    0.00000       Uiso       1.00
      C541          C  0.6619781  0.8476607  0.6427804    0.00000       Uiso       1.00
      C542          C  0.6999516  0.8659364  0.6234685    0.00000       Uiso       1.00
      H291          H  0.6830494  0.8818079  0.6559293    0.00000       Uiso       1.00
      O219          O  0.7199489  0.8828954  0.6210912    0.00000       Uiso       1.00
      C543          C  0.6815059  0.8664869  0.6422327    0.00000       Uiso       1.00
      C544          C  0.6235055  0.8091879  0.6427804    0.00000       Uiso       1.00
      C545          C  0.6052297  0.7712145  0.6234685    0.00000       Uiso       1.00
      O220          O  0.5882708  0.7512172  0.6210912    0.00000       Uiso       1.00
      H292          H  0.5893582  0.7881168  0.6559293    0.00000       Uiso       1.00
      C546          C  0.6046793  0.7896602  0.6422327    0.00000       Uiso       1.00
      C547          C  0.6428093  0.8476607  0.6619493    0.00000       Uiso       1.00
      C548          C  0.6234974  0.8659363  0.6999227    0.00000       Uiso       1.00
      H293          H  0.6559582  0.8818079  0.6830205    0.00000       Uiso       1.00
      O221          O  0.6211202  0.8828954  0.7199200    0.00000       Uiso       1.00
      C549          C  0.6422615  0.8664868  0.6814771    0.00000       Uiso       1.00
      C550          C  0.6619781  0.8283569  0.6234766    0.00000       Uiso       1.00
      C551          C  0.6999516  0.8476688  0.6052009    0.00000       Uiso       1.00
      H294          H  0.6830494  0.8152080  0.5893293    0.00000       Uiso       1.00
      O222          O  0.7199489  0.8500460  0.5882419    0.00000       Uiso       1.00
      C552          C  0.6815059  0.8289046  0.6046504    0.00000       Uiso       1.00
        B4          B  0.7325718  0.4586129  0.5985765    0.00000       Uiso       1.00
        B5          B  0.5986055  0.4586129  0.5985765    0.00000       Uiso       1.00
        B6          B  0.5986055  0.4586129  0.7325429    0.00000       Uiso       1.00
      C553          C  0.6619783  0.4571234  0.6234767    0.00000       Uiso       1.00
      C554          C  0.6999518  0.4575093  0.6052009    0.00000       Uiso       1.00
      H295          H  0.6830496  0.4571963  0.5893294    0.00000       Uiso       1.00
      O223          O  0.7199491  0.4581704  0.5882420    0.00000       Uiso       1.00
      C555          C  0.6815060  0.4572772  0.6046505    0.00000       Uiso       1.00
      C556          C  0.6235057  0.4571234  0.6427805    0.00000       Uiso       1.00
      C557          C  0.6052299  0.4575092  0.6234686    0.00000       Uiso       1.00
      H296          H  0.5893584  0.4571963  0.6559294    0.00000       Uiso       1.00
      O224          O  0.5882709  0.4581704  0.6210914    0.00000       Uiso       1.00
      C558          C  0.6046794  0.4572772  0.6422327    0.00000       Uiso       1.00
      C559          C  0.6428094  0.4571234  0.6619494    0.00000       Uiso       1.00
      C560          C  0.6234975  0.4575093  0.6999229    0.00000       Uiso       1.00
      H297          H  0.6559584  0.4571963  0.6830206    0.00000       Uiso       1.00
      O225          O  0.6211203  0.4581704  0.7199202    0.00000       Uiso       1.00
      C561          C  0.6422617  0.4572772  0.6814771    0.00000       Uiso       1.00
      C562          C  0.6428095  0.4571234  0.6234767    0.00000       Uiso       1.00
      C563          C  0.6234975  0.4575092  0.6052009    0.00000       Uiso       1.00
      O226          O  0.6211203  0.4581704  0.5882420    0.00000       Uiso       1.00
      H298          H  0.6559584  0.4571963  0.5893294    0.00000       Uiso       1.00
      C564          C  0.6422617  0.4572772  0.6046505    0.00000       Uiso       1.00
      C565          C  0.6619783  0.4571234  0.6427805    0.00000       Uiso       1.00
      C566          C  0.6999518  0.4575093  0.6234686    0.00000       Uiso       1.00
      H299          H  0.6830496  0.4571963  0.6559294    0.00000       Uiso       1.00
      O227          O  0.7199491  0.4581704  0.6210914    0.00000       Uiso       1.00
      C567          C  0.6815061  0.4572772  0.6422327    0.00000       Uiso       1.00
      C568          C  0.6235057  0.4571234  0.6619494    0.00000       Uiso       1.00
      C569          C  0.6052299  0.4575093  0.6999229    0.00000       Uiso       1.00
      H300          H  0.5893584  0.4571962  0.6830206    0.00000       Uiso       1.00
      O228          O  0.5882710  0.4581704  0.7199202    0.00000       Uiso       1.00
      C570          C  0.6046795  0.4572772  0.6814771    0.00000       Uiso       1.00
      C571          C  0.5429528  0.3767771  0.2287288    0.00000       Uiso       1.00
      C572          C  0.5440816  0.3580460  0.2098601    0.00000       Uiso       1.00
      C573          C  0.5462754  0.3400681  0.2092602    0.00000       Uiso       1.00
      C574          C  0.5462656  0.3210181  0.1906116    0.00000       Uiso       1.00
      C575          C  0.5428113  0.3190198  0.1725739    0.00000       Uiso       1.00
      C576          C  0.5403003  0.3372213  0.1736712    0.00000       Uiso       1.00
      C577          C  0.5424598  0.3573116  0.1913018    0.00000       Uiso       1.00
      O229          O  0.5434259  0.3797828  0.2485144    0.00000       Uiso       1.00
      H301          H  0.5480192  0.3408691  0.2233442    0.00000       Uiso       1.00
      H302          H  0.5487464  0.3079070  0.1906921    0.00000       Uiso       1.00
      H303          H  0.5352408  0.3353324  0.1614120    0.00000       Uiso       1.00
      C578          C  0.5430108  0.3949333  0.0943357    0.00000       Uiso       1.00
      C579          C  0.5441527  0.3959269  0.1130619    0.00000       Uiso       1.00
      C580          C  0.5463356  0.4154944  0.1310468    0.00000       Uiso       1.00
      C581          C  0.5463193  0.4158802  0.1500975    0.00000       Uiso       1.00
      C582          C  0.5428637  0.3963845  0.1520927    0.00000       Uiso       1.00
      C583          C  0.5403745  0.3767766  0.1338782    0.00000       Uiso       1.00
      C584          C  0.5425431  0.3764837  0.1137875    0.00000       Uiso       1.00
      O230          O  0.5434541  0.4121807  0.0913457    0.00000       Uiso       1.00
      H304          H  0.5480649  0.4305201  0.1302577    0.00000       Uiso       1.00
      H305          H  0.5487893  0.4315500  0.1632133    0.00000       Uiso       1.00
      H306          H  0.5353166  0.3613428  0.1357544    0.00000       Uiso       1.00
      C585          C  0.5429908  0.2424271  0.0762147    0.00000       Uiso       1.00
      C586          C  0.5441497  0.2613048  0.0752165    0.00000       Uiso       1.00
      C587          C  0.5463632  0.2619084  0.0556387    0.00000       Uiso       1.00
      C588          C  0.5463744  0.2805643  0.0552387    0.00000       Uiso       1.00
      C589          C  0.5429220  0.2986048  0.0747309    0.00000       Uiso       1.00
      C590          C  0.5404031  0.2975070  0.0943511    0.00000       Uiso       1.00
      C591          C  0.5425344  0.2798641  0.0946597    0.00000       Uiso       1.00
      O231          O  0.5434601  0.2226428  0.0589604    0.00000       Uiso       1.00
      H307          H  0.5480950  0.2478147  0.0406181    0.00000       Uiso       1.00
      H308          H  0.5488605  0.2804833  0.0395636    0.00000       Uiso       1.00
      H309          H  0.5353514  0.3097711  0.1097796    0.00000       Uiso       1.00
      C592          C  0.5401365  0.2415303  0.0954884    0.00000       Uiso       1.00
      C593          C  0.5396136  0.2598805  0.1147754    0.00000       Uiso       1.00
      C594          C  0.5372238  0.2590471  0.1343139    0.00000       Uiso       1.00
      C595          C  0.5375764  0.2778374  0.1532202    0.00000       Uiso       1.00
      C596          C  0.5416001  0.2982629  0.1526674    0.00000       Uiso       1.00
      C597          C  0.5444638  0.2988335  0.1326501    0.00000       Uiso       1.00
      C598          C  0.5419022  0.2796714  0.1141616    0.00000       Uiso       1.00
      O232          O  0.5385094  0.2210909  0.0931790    0.00000       Uiso       1.00
      H310          H  0.5349950  0.2437093  0.1348833    0.00000       Uiso       1.00
      H311          H  0.5348480  0.2761180  0.1680893    0.00000       Uiso       1.00
      H312          H  0.5499921  0.3144796  0.1309704    0.00000       Uiso       1.00
      C599          C  0.5401942  0.3756669  0.0770024    0.00000       Uiso       1.00
      C600          C  0.5396917  0.3563865  0.0765823    0.00000       Uiso       1.00
      C601          C  0.5373493  0.3368579  0.0585812    0.00000       Uiso       1.00
      C602          C  0.5377164  0.3179593  0.0581120    0.00000       Uiso       1.00
      C603          C  0.5417033  0.3185068  0.0750886    0.00000       Uiso       1.00
      C604          C  0.5445228  0.3385160  0.0928298    0.00000       Uiso       1.00
      C605          C  0.5419502  0.3569950  0.0947126    0.00000       Uiso       1.00
      O233          O  0.5385737  0.3779768  0.0604965    0.00000       Uiso       1.00
      H313          H  0.5351362  0.3362869  0.0448915    0.00000       Uiso       1.00
      H314          H  0.5350211  0.3030986  0.0442346    0.00000       Uiso       1.00
      H315          H  0.5500351  0.3402064  0.1046450    0.00000       Uiso       1.00
      C606          C  0.5401340  0.3941086  0.2296096    0.00000       Uiso       1.00
      C607          C  0.5396169  0.3945192  0.2112558    0.00000       Uiso       1.00
      C608          C  0.5372809  0.4125231  0.2120713    0.00000       Uiso       1.00
      C609          C  0.5376512  0.4129970  0.1932759    0.00000       Uiso       1.00
      C610          C  0.5416267  0.3960144  0.1728594    0.00000       Uiso       1.00
      C611          C  0.5444304  0.3782627  0.1723094    0.00000       Uiso       1.00
      C612          C  0.5418631  0.3763833  0.1914789    0.00000       Uiso       1.00
      O234          O  0.5385376  0.4106280  0.2500369    0.00000       Uiso       1.00
      H316          H  0.5350765  0.4262143  0.2274045    0.00000       Uiso       1.00
      H317          H  0.5349701  0.4268838  0.1949897    0.00000       Uiso       1.00
      H318          H  0.5499318  0.3664394  0.1566713    0.00000       Uiso       1.00
        B7          B  0.5406168  0.4013399  0.2619178    0.00000       Uiso       1.00
        B8          B  0.5406334  0.4012203  0.0697944    0.00000       Uiso       1.00
        B9          B  0.5406129  0.2092215  0.0699250    0.00000       Uiso       1.00
      C613          C  0.2287576  0.3949300  0.5429239    0.00000       Uiso       1.00
      C614          C  0.2098889  0.3959211  0.5440527    0.00000       Uiso       1.00
      C615          C  0.2092890  0.4154930  0.5462466    0.00000       Uiso       1.00
      C616          C  0.1906404  0.4158846  0.5462367    0.00000       Uiso       1.00
      C617          C  0.1726027  0.3963908  0.5427824    0.00000       Uiso       1.00
      C618          C  0.1737000  0.3767757  0.5402715    0.00000       Uiso       1.00
      C619          C  0.1913306  0.3764755  0.5424309    0.00000       Uiso       1.00
      O235          O  0.2485432  0.4121830  0.5433971    0.00000       Uiso       1.00
      H319          H  0.2233730  0.4305198  0.5479903    0.00000       Uiso       1.00
      H320          H  0.1907209  0.4315570  0.5487176    0.00000       Uiso       1.00
      H321          H  0.1614408  0.3613459  0.5352119    0.00000       Uiso       1.00
      C620          C  0.0943645  0.2424386  0.5429819    0.00000       Uiso       1.00
      C621          C  0.1130907  0.2613132  0.5441238    0.00000       Uiso       1.00
      C622          C  0.1310757  0.2619135  0.5463067    0.00000       Uiso       1.00
      C623          C  0.1501263  0.2805621  0.5462905    0.00000       Uiso       1.00
      C624          C  0.1521215  0.2985974  0.5428348    0.00000       Uiso       1.00
      C625          C  0.1339070  0.2975016  0.5403457    0.00000       Uiso       1.00
      C626          C  0.1138163  0.2798724  0.5425143    0.00000       Uiso       1.00
      O236          O  0.0913745  0.2226446  0.5434253    0.00000       Uiso       1.00
      H322          H  0.1302865  0.2478280  0.5480360    0.00000       Uiso       1.00
      H323          H  0.1632421  0.2804780  0.5487604    0.00000       Uiso       1.00
      H324          H  0.1357832  0.3097537  0.5352877    0.00000       Uiso       1.00
      C627          C  0.0762435  0.3768039  0.5429620    0.00000       Uiso       1.00
      C628          C  0.0752453  0.3580869  0.5441208    0.00000       Uiso       1.00
      C629          C  0.0556675  0.3401191  0.5463344    0.00000       Uiso       1.00
      C630          C  0.0552675  0.3210743  0.5463456    0.00000       Uiso       1.00
      C631          C  0.0747597  0.3190736  0.5428931    0.00000       Uiso       1.00
      C632          C  0.0943799  0.3372726  0.5403742    0.00000       Uiso       1.00
      C633          C  0.0946885  0.3573555  0.5425056    0.00000       Uiso       1.00
      O237          O  0.0589892  0.3798032  0.5434313    0.00000       Uiso       1.00
      H325          H  0.0406469  0.3409239  0.5480662    0.00000       Uiso       1.00
      H326          H  0.0395925  0.3079663  0.5488316    0.00000       Uiso       1.00
      H327          H  0.1098084  0.3353854  0.5353225    0.00000       Uiso       1.00
      C634          C  0.0955172  0.3941200  0.5401076    0.00000       Uiso       1.00
      C635          C  0.1148042  0.3945340  0.5395847    0.00000       Uiso       1.00
      C636          C  0.1343427  0.4125161  0.5371950    0.00000       Uiso       1.00
      C637          C  0.1532490  0.4129846  0.5375475    0.00000       Uiso       1.00
      C638          C  0.1526962  0.3960302  0.5415713    0.00000       Uiso       1.00
      C639          C  0.1326789  0.3783059  0.5444349    0.00000       Uiso       1.00
      C640          C  0.1141904  0.3764179  0.5418734    0.00000       Uiso       1.00
      O238          O  0.0932078  0.4106229  0.5384805    0.00000       Uiso       1.00
      H328          H  0.1349121  0.4261945  0.5349662    0.00000       Uiso       1.00
      H329          H  0.1681181  0.4268448  0.5348191    0.00000       Uiso       1.00
      H330          H  0.1309992  0.3665085  0.5499633    0.00000       Uiso       1.00
      C641          C  0.0770312  0.2415552  0.5401653    0.00000       Uiso       1.00
      C642          C  0.0766111  0.2599130  0.5396628    0.00000       Uiso       1.00
      C643          C  0.0586100  0.2590981  0.5373204    0.00000       Uiso       1.00
      C644          C  0.0581408  0.2778946  0.5376876    0.00000       Uiso       1.00
      C645          C  0.0751174  0.2983106  0.5416744    0.00000       Uiso       1.00
      C646          C  0.0928586  0.2988622  0.5444940    0.00000       Uiso       1.00
      C647          C  0.0947414  0.2796932  0.5419214    0.00000       Uiso       1.00
      O239          O  0.0605253  0.2211188  0.5385448    0.00000       Uiso       1.00
      H331          H  0.0449203  0.2437662  0.5351073    0.00000       Uiso       1.00
      H332          H  0.0442634  0.2761826  0.5349923    0.00000       Uiso       1.00
      H333          H  0.1046738  0.3144992  0.5500062    0.00000       Uiso       1.00
      C648          C  0.2296384  0.3756606  0.5401052    0.00000       Uiso       1.00
      C649          C  0.2112846  0.3563791  0.5395881    0.00000       Uiso       1.00
      C650          C  0.2121001  0.3368546  0.5372521    0.00000       Uiso       1.00
      C651          C  0.1933047  0.3179557  0.5376224    0.00000       Uiso       1.00
      C652          C  0.1728882  0.3184972  0.5415978    0.00000       Uiso       1.00
      C653          C  0.1723382  0.3385026  0.5444016    0.00000       Uiso       1.00
      C654          C  0.1915077  0.3569842  0.5418342    0.00000       Uiso       1.00
      O240          O  0.2500657  0.3779719  0.5385088    0.00000       Uiso       1.00
      H334          H  0.2274333  0.3362921  0.5350477    0.00000       Uiso       1.00
      H335          H  0.1950185  0.3031015  0.5349413    0.00000       Uiso       1.00
      H336          H  0.1567001  0.3401892  0.5499029    0.00000       Uiso       1.00
       B10          B  0.2619466  0.4012203  0.5405880    0.00000       Uiso       1.00
       B11          B  0.0698232  0.2092330  0.5406046    0.00000       Uiso       1.00
       B12          B  0.0699538  0.4013418  0.5405840    0.00000       Uiso       1.00
       B13          B  0.5986053  0.7385944  0.0125251    0.00000       Uiso       1.00
       B14          B  0.5986053  0.8725607  0.0125251    0.00000       Uiso       1.00
       B15          B  0.7325716  0.8725607  0.0125251    0.00000       Uiso       1.00
      C655          C  0.6235054  0.8091879  0.0140146    0.00000       Uiso       1.00
      C656          C  0.6052297  0.7712144  0.0136287    0.00000       Uiso       1.00
      H337          H  0.5893581  0.7881166  0.0139417    0.00000       Uiso       1.00
      O241          O  0.5882707  0.7512171  0.0129676    0.00000       Uiso       1.00
      C657          C  0.6046792  0.7896601  0.0138608    0.00000       Uiso       1.00
      C658          C  0.6428092  0.8476605  0.0140146    0.00000       Uiso       1.00
      C659          C  0.6234973  0.8659363  0.0136287    0.00000       Uiso       1.00
      H338          H  0.6559581  0.8818079  0.0139417    0.00000       Uiso       1.00
      O242          O  0.6211200  0.8828953  0.0129676    0.00000       Uiso       1.00
      C660          C  0.6422614  0.8664868  0.0138608    0.00000       Uiso       1.00
      C661          C  0.6619781  0.8283568  0.0140146    0.00000       Uiso       1.00
      C662          C  0.6999515  0.8476686  0.0136287    0.00000       Uiso       1.00
      H339          H  0.6830493  0.8152078  0.0139417    0.00000       Uiso       1.00
      O243          O  0.7199488  0.8500459  0.0129676    0.00000       Uiso       1.00
      C663          C  0.6815059  0.8289045  0.0138608    0.00000       Uiso       1.00
      C664          C  0.6235054  0.8283568  0.0140146    0.00000       Uiso       1.00
      C665          C  0.6052296  0.8476686  0.0136287    0.00000       Uiso       1.00
      O244          O  0.5882707  0.8500459  0.0129676    0.00000       Uiso       1.00
      H340          H  0.5893581  0.8152078  0.0139417    0.00000       Uiso       1.00
      C666          C  0.6046792  0.8289045  0.0138608    0.00000       Uiso       1.00
      C667          C  0.6428092  0.8091879  0.0140146    0.00000       Uiso       1.00
      C668          C  0.6234973  0.7712144  0.0136287    0.00000       Uiso       1.00
      H341          H  0.6559581  0.7881167  0.0139417    0.00000       Uiso       1.00
      O245          O  0.6211201  0.7512171  0.0129676    0.00000       Uiso       1.00
      C669          C  0.6422614  0.7896601  0.0138608    0.00000       Uiso       1.00
      C670          C  0.6619781  0.8476605  0.0140146    0.00000       Uiso       1.00
      C671          C  0.6999516  0.8659363  0.0136287    0.00000       Uiso       1.00
      H342          H  0.6830493  0.8818079  0.0139417    0.00000       Uiso       1.00
      O246          O  0.7199489  0.8828953  0.0129676    0.00000       Uiso       1.00
      C672          C  0.6815059  0.8664868  0.0138608    0.00000       Uiso       1.00
      C673          C  0.2287574  0.9282134  0.0943609    0.00000       Uiso       1.00
      C674          C  0.2098887  0.9270846  0.1130920    0.00000       Uiso       1.00
      C675          C  0.2092889  0.9248908  0.1310699    0.00000       Uiso       1.00
      C676          C  0.1906402  0.9249006  0.1501199    0.00000       Uiso       1.00
      C677          C  0.1726025  0.9283549  0.1521182    0.00000       Uiso       1.00
      C678          C  0.1736998  0.9308658  0.1339167    0.00000       Uiso       1.00
      C679          C  0.1913304  0.9287063  0.1138264    0.00000       Uiso       1.00
      O247          O  0.2485430  0.9277402  0.0913552    0.00000       Uiso       1.00
      H343          H  0.2233728  0.9231470  0.1302689    0.00000       Uiso       1.00
      H344          H  0.1907207  0.9224197  0.1632310    0.00000       Uiso       1.00
      H345          H  0.1614407  0.9359253  0.1358056    0.00000       Uiso       1.00
      C680          C  0.0943643  0.9281554  0.0762047    0.00000       Uiso       1.00
      C681          C  0.1130905  0.9270135  0.0752111    0.00000       Uiso       1.00
      C682          C  0.1310755  0.9248306  0.0556436    0.00000       Uiso       1.00
      C683          C  0.1501261  0.9248468  0.0552578    0.00000       Uiso       1.00
      C684          C  0.1521213  0.9283023  0.0747535    0.00000       Uiso       1.00
      C685          C  0.1339068  0.9307916  0.0943614    0.00000       Uiso       1.00
      C686          C  0.1138161  0.9286230  0.0946543    0.00000       Uiso       1.00
      O248          O  0.0913743  0.9277120  0.0589573    0.00000       Uiso       1.00
      H346          H  0.1302863  0.9231012  0.0406180    0.00000       Uiso       1.00
      H347          H  0.1632419  0.9223769  0.0395880    0.00000       Uiso       1.00
      H348          H  0.1357830  0.9358495  0.1097953    0.00000       Uiso       1.00
      C687          C  0.0762433  0.9281753  0.2287110    0.00000       Uiso       1.00
      C688          C  0.0752451  0.9270164  0.2098332    0.00000       Uiso       1.00
      C689          C  0.0556673  0.9248028  0.2092297    0.00000       Uiso       1.00
      C690          C  0.0552674  0.9247916  0.1905737    0.00000       Uiso       1.00
      C691          C  0.0747595  0.9282441  0.1725333    0.00000       Uiso       1.00
      C692          C  0.0943797  0.9307631  0.1736310    0.00000       Uiso       1.00
      C693          C  0.0946884  0.9286317  0.1912739    0.00000       Uiso       1.00
      O249          O  0.0589891  0.9277060  0.2484952    0.00000       Uiso       1.00
      H349          H  0.0406468  0.9230711  0.2233233    0.00000       Uiso       1.00
      H350          H  0.0395923  0.9223056  0.1906547    0.00000       Uiso       1.00
      H351          H  0.1098083  0.9358147  0.1613670    0.00000       Uiso       1.00
      C694          C  0.0955170  0.9310296  0.2296077    0.00000       Uiso       1.00
      C695          C  0.1148040  0.9315525  0.2112576    0.00000       Uiso       1.00
      C696          C  0.1343425  0.9339424  0.2120909    0.00000       Uiso       1.00
      C697          C  0.1532488  0.9335898  0.1933006    0.00000       Uiso       1.00
      C698          C  0.1526961  0.9295660  0.1728752    0.00000       Uiso       1.00
      C699          C  0.1326788  0.9267024  0.1723045    0.00000       Uiso       1.00
      C700          C  0.1141903  0.9292639  0.1914666    0.00000       Uiso       1.00
      O250          O  0.0932076  0.9326568  0.2500471    0.00000       Uiso       1.00
      H352          H  0.1349119  0.9361711  0.2274287    0.00000       Uiso       1.00
      H353          H  0.1681179  0.9363182  0.1950200    0.00000       Uiso       1.00
      H354          H  0.1309991  0.9211740  0.1566584    0.00000       Uiso       1.00
      C701          C  0.0770310  0.9309719  0.0954712    0.00000       Uiso       1.00
      C702          C  0.0766110  0.9314744  0.1147515    0.00000       Uiso       1.00
      C703          C  0.0586098  0.9338169  0.1342802    0.00000       Uiso       1.00
      C704          C  0.0581406  0.9334496  0.1531787    0.00000       Uiso       1.00
      C705          C  0.0751172  0.9294628  0.1526313    0.00000       Uiso       1.00
      C706          C  0.0928585  0.9266433  0.1326220    0.00000       Uiso       1.00
      C707          C  0.0947412  0.9292159  0.1141429    0.00000       Uiso       1.00
      O251          O  0.0605251  0.9325925  0.0931612    0.00000       Uiso       1.00
      H355          H  0.0449201  0.9360300  0.1348512    0.00000       Uiso       1.00
      H356          H  0.0442632  0.9361450  0.1680394    0.00000       Uiso       1.00
      H357          H  0.1046736  0.9211310  0.1309316    0.00000       Uiso       1.00
      C708          C  0.2296382  0.9310321  0.0770295    0.00000       Uiso       1.00
      C709          C  0.2112844  0.9315492  0.0766188    0.00000       Uiso       1.00
      C710          C  0.2121000  0.9338852  0.0586149    0.00000       Uiso       1.00
      C711          C  0.1933045  0.9335148  0.0581410    0.00000       Uiso       1.00
      C712          C  0.1728880  0.9295394  0.0751236    0.00000       Uiso       1.00
      C713          C  0.1723380  0.9267356  0.0928753    0.00000       Uiso       1.00
      C714          C  0.1915075  0.9293031  0.0947547    0.00000       Uiso       1.00
      O252          O  0.2500655  0.9326285  0.0605100    0.00000       Uiso       1.00
      H358          H  0.2274331  0.9360896  0.0449237    0.00000       Uiso       1.00
      H359          H  0.1950183  0.9361960  0.0442542    0.00000       Uiso       1.00
      H360          H  0.1567000  0.9212344  0.1046986    0.00000       Uiso       1.00
       B16          B  0.2619465  0.9305493  0.0697981    0.00000       Uiso       1.00
       B17          B  0.0698230  0.9305326  0.0699177    0.00000       Uiso       1.00
       B18          B  0.0699536  0.9305533  0.2619165    0.00000       Uiso       1.00
       B19          B  0.0125538  0.8725607  0.7325429    0.00000       Uiso       1.00
       B20          B  0.0125538  0.8725607  0.5985765    0.00000       Uiso       1.00
       B21          B  0.0125538  0.7385944  0.5985765    0.00000       Uiso       1.00
      C715          C  0.0140433  0.8476606  0.6619494    0.00000       Uiso       1.00
      C716          C  0.0136574  0.8659363  0.6999229    0.00000       Uiso       1.00
      H361          H  0.0139704  0.8818079  0.6830207    0.00000       Uiso       1.00
      O253          O  0.0129963  0.8828953  0.7199202    0.00000       Uiso       1.00
      C717          C  0.0138895  0.8664867  0.6814771    0.00000       Uiso       1.00
      C718          C  0.0140433  0.8283567  0.6234767    0.00000       Uiso       1.00
      C719          C  0.0136574  0.8476686  0.6052010    0.00000       Uiso       1.00
      H362          H  0.0139704  0.8152078  0.5893294    0.00000       Uiso       1.00
      O254          O  0.0129963  0.8500459  0.5882420    0.00000       Uiso       1.00
      C720          C  0.0138895  0.8289045  0.6046505    0.00000       Uiso       1.00
      C721          C  0.0140433  0.8091879  0.6427805    0.00000       Uiso       1.00
      C722          C  0.0136574  0.7712144  0.6234686    0.00000       Uiso       1.00
      H363          H  0.0139704  0.7881167  0.6559294    0.00000       Uiso       1.00
      O255          O  0.0129963  0.7512171  0.6210914    0.00000       Uiso       1.00
      C723          C  0.0138895  0.7896602  0.6422327    0.00000       Uiso       1.00
      C724          C  0.0140433  0.8476606  0.6427805    0.00000       Uiso       1.00
      C725          C  0.0136574  0.8659363  0.6234686    0.00000       Uiso       1.00
      O256          O  0.0129963  0.8828953  0.6210914    0.00000       Uiso       1.00
      H364          H  0.0139704  0.8818079  0.6559294    0.00000       Uiso       1.00
      C726          C  0.0138895  0.8664868  0.6422327    0.00000       Uiso       1.00
      C727          C  0.0140433  0.8283567  0.6619494    0.00000       Uiso       1.00
      C728          C  0.0136574  0.8476686  0.6999229    0.00000       Uiso       1.00
      H365          H  0.0139704  0.8152078  0.6830207    0.00000       Uiso       1.00
      O257          O  0.0129963  0.8500459  0.7199202    0.00000       Uiso       1.00
      C729          C  0.0138895  0.8289045  0.6814771    0.00000       Uiso       1.00
      C730          C  0.0140433  0.8091879  0.6234767    0.00000       Uiso       1.00
      C731          C  0.0136574  0.7712144  0.6052009    0.00000       Uiso       1.00
      H366          H  0.0139704  0.7881166  0.5893294    0.00000       Uiso       1.00
      O258          O  0.0129963  0.7512171  0.5882420    0.00000       Uiso       1.00
      C732          C  0.0138895  0.7896601  0.6046505    0.00000       Uiso       1.00
      C733          C  0.0943897  0.3949301  0.2287289    0.00000       Uiso       1.00
      C734          C  0.1131208  0.3959212  0.2098602    0.00000       Uiso       1.00
      C735          C  0.1310988  0.4154931  0.2092603    0.00000       Uiso       1.00
      C736          C  0.1501488  0.4158846  0.1906116    0.00000       Uiso       1.00
      C737          C  0.1521470  0.3963909  0.1725740    0.00000       Uiso       1.00
      C738          C  0.1339456  0.3767757  0.1736712    0.00000       Uiso       1.00
      C739          C  0.1138552  0.3764756  0.1913019    0.00000       Uiso       1.00
      O259          O  0.0913840  0.4121831  0.2485145    0.00000       Uiso       1.00
      H367          H  0.1302978  0.4305198  0.2233443    0.00000       Uiso       1.00
      H368          H  0.1632598  0.4315571  0.1906922    0.00000       Uiso       1.00
      H369          H  0.1358344  0.3613460  0.1614121    0.00000       Uiso       1.00
      C740          C  0.0762336  0.2424387  0.0943357    0.00000       Uiso       1.00
      C741          C  0.0752399  0.2613132  0.1130620    0.00000       Uiso       1.00
      C742          C  0.0556724  0.2619136  0.1310469    0.00000       Uiso       1.00
      C743          C  0.0552867  0.2805622  0.1500976    0.00000       Uiso       1.00
      C744          C  0.0747823  0.2985975  0.1520928    0.00000       Uiso       1.00
      C745          C  0.0943902  0.2975017  0.1338783    0.00000       Uiso       1.00
      C746          C  0.0946831  0.2798725  0.1137876    0.00000       Uiso       1.00
      O260          O  0.0589861  0.2226447  0.0913458    0.00000       Uiso       1.00
      H370          H  0.0406468  0.2478281  0.1302577    0.00000       Uiso       1.00
      H371          H  0.0396168  0.2804781  0.1632134    0.00000       Uiso       1.00
      H372          H  0.1098241  0.3097538  0.1357545    0.00000       Uiso       1.00
      C747          C  0.2287398  0.3768040  0.0762148    0.00000       Uiso       1.00
      C748          C  0.2098621  0.3580870  0.0752165    0.00000       Uiso       1.00
      C749          C  0.2092585  0.3401192  0.0556388    0.00000       Uiso       1.00
      C750          C  0.1906025  0.3210745  0.0552388    0.00000       Uiso       1.00
      C751          C  0.1725621  0.3190736  0.0747310    0.00000       Uiso       1.00
      C752          C  0.1736598  0.3372727  0.0943512    0.00000       Uiso       1.00
      C753          C  0.1913027  0.3573556  0.0946598    0.00000       Uiso       1.00
      O261          O  0.2485240  0.3798033  0.0589605    0.00000       Uiso       1.00
      H373          H  0.2233521  0.3409241  0.0406182    0.00000       Uiso       1.00
      H374          H  0.1906836  0.3079664  0.0395637    0.00000       Uiso       1.00
      H375          H  0.1613958  0.3353855  0.1097797    0.00000       Uiso       1.00
      C754          C  0.2296365  0.3941201  0.0954885    0.00000       Uiso       1.00
      C755          C  0.2112864  0.3945341  0.1147754    0.00000       Uiso       1.00
      C756          C  0.2121198  0.4125162  0.1343140    0.00000       Uiso       1.00
      C757          C  0.1933295  0.4129847  0.1532203    0.00000       Uiso       1.00
      C758          C  0.1729040  0.3960302  0.1526675    0.00000       Uiso       1.00
      C759          C  0.1723333  0.3783060  0.1326502    0.00000       Uiso       1.00
      C760          C  0.1914954  0.3764180  0.1141617    0.00000       Uiso       1.00
      O262          O  0.2500759  0.4106230  0.0931791    0.00000       Uiso       1.00
      H376          H  0.2274576  0.4261946  0.1348834    0.00000       Uiso       1.00
      H377          H  0.1950488  0.4268449  0.1680894    0.00000       Uiso       1.00
      H378          H  0.1566872  0.3665085  0.1309705    0.00000       Uiso       1.00
      C761          C  0.0955000  0.2415552  0.0770024    0.00000       Uiso       1.00
      C762          C  0.1147803  0.2599131  0.0765824    0.00000       Uiso       1.00
      C763          C  0.1343090  0.2590982  0.0585813    0.00000       Uiso       1.00
      C764          C  0.1532075  0.2778947  0.0581121    0.00000       Uiso       1.00
      C765          C  0.1526601  0.2983107  0.0750887    0.00000       Uiso       1.00
      C766          C  0.1326509  0.2988623  0.0928299    0.00000       Uiso       1.00
      C767          C  0.1141718  0.2796933  0.0947126    0.00000       Uiso       1.00
      O263          O  0.0931900  0.2211189  0.0604965    0.00000       Uiso       1.00
      H379          H  0.1348800  0.2437663  0.0448915    0.00000       Uiso       1.00
      H380          H  0.1680682  0.2761827  0.0442347    0.00000       Uiso       1.00
      H381          H  0.1309604  0.3144993  0.1046451    0.00000       Uiso       1.00
      C768          C  0.0770583  0.3756606  0.2296097    0.00000       Uiso       1.00
      C769          C  0.0766476  0.3563792  0.2112559    0.00000       Uiso       1.00
      C770          C  0.0586437  0.3368547  0.2120714    0.00000       Uiso       1.00
      C771          C  0.0581699  0.3179558  0.1932760    0.00000       Uiso       1.00
      C772          C  0.0751524  0.3184973  0.1728595    0.00000       Uiso       1.00
      C773          C  0.0929041  0.3385027  0.1723095    0.00000       Uiso       1.00
      C774          C  0.0947835  0.3569843  0.1914790    0.00000       Uiso       1.00
      O264          O  0.0605388  0.3779720  0.2500370    0.00000       Uiso       1.00
      H382          H  0.0449525  0.3362922  0.2274046    0.00000       Uiso       1.00
      H383          H  0.0442831  0.3031015  0.1949897    0.00000       Uiso       1.00
      H384          H  0.1047275  0.3401892  0.1566714    0.00000       Uiso       1.00
       B22          B  0.0698269  0.4012203  0.2619179    0.00000       Uiso       1.00
       B23          B  0.0699465  0.2092331  0.0697945    0.00000       Uiso       1.00
       B24          B  0.2619453  0.4013419  0.0699251    0.00000       Uiso       1.00
