data_104
_audit_creation_date              0000-00-00
_audit_creation_method            'LanYouShi'
_symmetry_space_group_name_H-M    'P1'
_cell_length_a                    45.0443993
_cell_length_b                    63.7023010
_cell_length_c                    45.0438995
_cell_angle_alpha                 90.0000000
_cell_angle_beta                  90.0000000
_cell_angle_gamma                 135.0000000
loop_
_atom_site_label
_atom_site_type_symbol
_atom_site_fract_x
_atom_site_fract_y
_atom_site_fract_z
_atom_site_U_iso_or_equiv
_atom_site_adp_type
_atom_site_occupancy
        C1          C  0.5000035  0.4020165  0.3644380    0.00000       Uiso       1.00
        C2          C  0.4621789  0.3907237  0.3759007    0.00000       Uiso       1.00
        C3          C  0.4617823  0.4060414  0.3986134    0.00000       Uiso       1.00
        C4          C  0.5378276  0.4285481  0.3759015    0.00000       Uiso       1.00
        C5          C  0.5382200  0.4442637  0.3986120    0.00000       Uiso       1.00
        C6          C  0.5000005  0.4329579  0.4100486    0.00000       Uiso       1.00
        H1          H  0.5689682  0.4380377  0.3668630    0.00000       Uiso       1.00
        H2          H  0.4310386  0.3690728  0.3668614    0.00000       Uiso       1.00
        C7          C  0.3040212  0.4020077  0.6355571    0.00000       Uiso       1.00
        C8          C  0.3192609  0.3907156  0.6240936    0.00000       Uiso       1.00
        C9          C  0.3502984  0.4060380  0.6013818    0.00000       Uiso       1.00
       C10          C  0.3192609  0.4285400  0.6240952    0.00000       Uiso       1.00
       C11          C  0.3502938  0.4442534  0.6013819    0.00000       Uiso       1.00
       C12          C  0.3659051  0.4329511  0.5899451    0.00000       Uiso       1.00
        H3          H  0.3070989  0.4380291  0.6331344    0.00000       Uiso       1.00
        H4          H  0.3070989  0.3690642  0.6331314    0.00000       Uiso       1.00
       C13          C  0.6959737  0.5979843  0.6355614    0.00000       Uiso       1.00
       C14          C  0.6807345  0.6092771  0.6240992    0.00000       Uiso       1.00
       C15          C  0.6496980  0.5939553  0.6013886    0.00000       Uiso       1.00
       C16          C  0.6807345  0.5714527  0.6240976    0.00000       Uiso       1.00
       C17          C  0.6497017  0.5557399  0.6013830    0.00000       Uiso       1.00
       C18          C  0.6340910  0.5670438  0.5899487    0.00000       Uiso       1.00
        H5          H  0.6928962  0.5619631  0.6331357    0.00000       Uiso       1.00
        H6          H  0.6928962  0.6309280  0.6331387    0.00000       Uiso       1.00
       C19          C  0.5000035  0.5979931  0.3644463    0.00000       Uiso       1.00
       C20          C  0.5378276  0.6092852  0.3759093    0.00000       Uiso       1.00
       C21          C  0.5382204  0.5939638  0.3986216    0.00000       Uiso       1.00
       C22          C  0.4621789  0.5714607  0.3759085    0.00000       Uiso       1.00
       C23          C  0.4617865  0.5557451  0.3986174    0.00000       Uiso       1.00
       C24          C  0.5000033  0.5670494  0.4100549    0.00000       Uiso       1.00
       C25          C  0.5000004  0.5000008  0.5000005    0.00000       Uiso       1.00
        H7          H  0.4310386  0.5619717  0.3668697    0.00000       Uiso       1.00
        H8          H  0.5689682  0.6309366  0.3668713    0.00000       Uiso       1.00
       C26          C  0.3663650  0.4712255  0.5900024    0.00000       Uiso       1.00
       C27          C  0.3975260  0.4867965  0.5677911    0.00000       Uiso       1.00
        H9          H  0.4093634  0.5075931  0.5596745    0.00000       Uiso       1.00
       H10          H  0.3549762  0.4804084  0.5984262    0.00000       Uiso       1.00
       C28          C  0.4999970  0.4486805  0.4326928    0.00000       Uiso       1.00
       C29          C  0.4618108  0.4375817  0.4437849    0.00000       Uiso       1.00
       C30          C  0.4620336  0.4536186  0.4658582    0.00000       Uiso       1.00
       C31          C  0.5381817  0.4757733  0.4437787    0.00000       Uiso       1.00
       C32          C  0.5379590  0.4915870  0.4658493    0.00000       Uiso       1.00
       C33          C  0.4999976  0.4805852  0.4780934    0.00000       Uiso       1.00
       H11          H  0.4582134  0.4452946  0.5269008    0.00000       Uiso       1.00
       H12          H  0.5417972  0.4870811  0.5269073    0.00000       Uiso       1.00
       C34          C  0.3973571  0.4486792  0.5672979    0.00000       Uiso       1.00
       C35          C  0.4133570  0.4375873  0.5562139    0.00000       Uiso       1.00
       C36          C  0.4452107  0.4536268  0.5341476    0.00000       Uiso       1.00
       C37          C  0.4133461  0.4757668  0.5562090    0.00000       Uiso       1.00
       C38          C  0.4451974  0.4915824  0.5341401    0.00000       Uiso       1.00
       C39          C  0.4611714  0.4805881  0.5219064    0.00000       Uiso       1.00
       H13          H  0.4323651  0.4452901  0.4731085    0.00000       Uiso       1.00
       H14          H  0.4323729  0.4870771  0.4730963    0.00000       Uiso       1.00
       C40          C  0.6026399  0.5513207  0.5673020    0.00000       Uiso       1.00
       C41          C  0.5866380  0.5624128  0.5562208    0.00000       Uiso       1.00
       C42          C  0.5547812  0.5463716  0.5341542    0.00000       Uiso       1.00
       C43          C  0.5866484  0.5242333  0.5562117    0.00000       Uiso       1.00
       C44          C  0.5547999  0.5084190  0.5341426    0.00000       Uiso       1.00
       C45          C  0.5388285  0.5194141  0.5219071    0.00000       Uiso       1.00
       H15          H  0.5676387  0.5547234  0.4731054    0.00000       Uiso       1.00
       H16          H  0.5676275  0.5129254  0.4730922    0.00000       Uiso       1.00
       C46          C  0.5000023  0.5513212  0.4327003    0.00000       Uiso       1.00
       C47          C  0.5381867  0.5624183  0.4437909    0.00000       Uiso       1.00
       C48          C  0.5379661  0.5463833  0.4658593    0.00000       Uiso       1.00
       C49          C  0.4618188  0.5242286  0.4437823    0.00000       Uiso       1.00
       C50          C  0.4620427  0.5084141  0.4658498    0.00000       Uiso       1.00
       C51          C  0.5000039  0.5194162  0.4780941    0.00000       Uiso       1.00
       H17          H  0.5417504  0.5546889  0.5269213    0.00000       Uiso       1.00
       H18          H  0.4581943  0.5129164  0.5268924    0.00000       Uiso       1.00
       C52          C  0.6024666  0.5132005  0.5677915    0.00000       Uiso       1.00
       C53          C  0.6336282  0.5287689  0.5900021    0.00000       Uiso       1.00
       C54          C  0.6024486  0.5892587  0.5678103    0.00000       Uiso       1.00
       C55          C  0.6336176  0.6048514  0.5900179    0.00000       Uiso       1.00
       C56          C  0.4239317  0.4107319  0.4322006    0.00000       Uiso       1.00
       C57          C  0.4239112  0.3951395  0.4099900    0.00000       Uiso       1.00
       C58          C  0.5760671  0.4868098  0.4321948    0.00000       Uiso       1.00
       C59          C  0.5760912  0.4712393  0.4099873    0.00000       Uiso       1.00
       C60          C  0.4239360  0.5131946  0.4321976    0.00000       Uiso       1.00
       C61          C  0.4239156  0.5287688  0.4099906    0.00000       Uiso       1.00
       C62          C  0.5760689  0.5892696  0.4322127    0.00000       Uiso       1.00
       C63          C  0.5760893  0.6048611  0.4100022    0.00000       Uiso       1.00
       C64          C  0.3975435  0.4107393  0.5677983    0.00000       Uiso       1.00
       C65          C  0.3663807  0.3951455  0.5900052    0.00000       Uiso       1.00
       H19          H  0.3941632  0.5195872  0.4015615    0.00000       Uiso       1.00
       H20          H  0.3941802  0.4923939  0.4403097    0.00000       Uiso       1.00
       H21          H  0.6058423  0.6254345  0.4015769    0.00000       Uiso       1.00
       H22          H  0.6058276  0.5982334  0.4403262    0.00000       Uiso       1.00
       H23          H  0.5906307  0.4924036  0.5596809    0.00000       Uiso       1.00
       H24          H  0.6450191  0.5195867  0.5984294    0.00000       Uiso       1.00
       H25          H  0.5905973  0.5982123  0.5597043    0.00000       Uiso       1.00
       H26          H  0.6450069  0.6254207  0.5984532    0.00000       Uiso       1.00
       H27          H  0.4093812  0.4017790  0.5596909    0.00000       Uiso       1.00
       H28          H  0.3549984  0.3745753  0.5984291    0.00000       Uiso       1.00
       H29          H  0.6058475  0.4804227  0.4015596    0.00000       Uiso       1.00
       H30          H  0.6058267  0.5076096  0.4403057    0.00000       Uiso       1.00
       H31          H  0.3941754  0.4017747  0.4403177    0.00000       Uiso       1.00
       H32          H  0.3941573  0.3745641  0.4015599    0.00000       Uiso       1.00
       C66          C  0.2335329  0.5979692  0.0979918    0.00000       Uiso       1.00
       C67          C  0.1955380  0.5714369  0.1092837    0.00000       Uiso       1.00
       C68          C  0.1571120  0.5557229  0.0939648    0.00000       Uiso       1.00
       C69          C  0.2333632  0.6092625  0.0714601    0.00000       Uiso       1.00
       C70          C  0.1953306  0.5939397  0.0557434    0.00000       Uiso       1.00
       C71          C  0.1569799  0.5670253  0.0670481    0.00000       Uiso       1.00
       H33          H  0.2640531  0.6309140  0.0619713    0.00000       Uiso       1.00
       H34          H  0.1950867  0.5619469  0.1309346    0.00000       Uiso       1.00
       C72          C  0.7664416  0.4019926  0.0979883    0.00000       Uiso       1.00
       C73          C  0.8044359  0.4285242  0.1092816    0.00000       Uiso       1.00
       C74          C  0.8428636  0.4442401  0.0939601    0.00000       Uiso       1.00
       C75          C  0.7666124  0.3907010  0.0714556    0.00000       Uiso       1.00
       C76          C  0.8046460  0.4060213  0.0557430    0.00000       Uiso       1.00
       C77          C  0.8429953  0.4329347  0.0670465    0.00000       Uiso       1.00
       H35          H  0.7359230  0.3690502  0.0619655    0.00000       Uiso       1.00
       H36          H  0.8048862  0.4380128  0.1309333    0.00000       Uiso       1.00
       C78          C  0.9624221  0.5979756  0.9020160    0.00000       Uiso       1.00
       C79          C  0.9473532  0.5714440  0.8907224    0.00000       Uiso       1.00
       C80          C  0.9543484  0.5557290  0.9060444    0.00000       Uiso       1.00
       C81          C  0.9851767  0.6092672  0.9285484    0.00000       Uiso       1.00
       C82          C  0.9925706  0.5939468  0.9442613    0.00000       Uiso       1.00
       C83          C  0.9770911  0.5670326  0.9329568    0.00000       Uiso       1.00
       H37          H  0.9977891  0.6309180  0.9380386    0.00000       Uiso       1.00
       H38          H  0.9288259  0.5619554  0.8690708    0.00000       Uiso       1.00
       C84          C  0.0375610  0.4019990  0.9020067    0.00000       Uiso       1.00
       C85          C  0.0526304  0.4285313  0.8907152    0.00000       Uiso       1.00
       C86          C  0.0456313  0.4442448  0.9060367    0.00000       Uiso       1.00
       C87          C  0.0148052  0.3907057  0.9285387    0.00000       Uiso       1.00
       C88          C  0.0074186  0.4060283  0.9442546    0.00000       Uiso       1.00
       C89          C  0.0228938  0.4329409  0.9329506    0.00000       Uiso       1.00
       C90          C  0.9999885  0.4999836  0.0000004    0.00000       Uiso       1.00
       H39          H  0.0021924  0.3690542  0.9380273    0.00000       Uiso       1.00
       H40          H  0.0711588  0.4380214  0.8690640    0.00000       Uiso       1.00
       C91          C  0.8051261  0.3951214  0.0287705    0.00000       Uiso       1.00
       C92          C  0.8429282  0.4107122  0.0132004    0.00000       Uiso       1.00
       H41          H  0.8420867  0.4017537  0.9924032    0.00000       Uiso       1.00
       H42          H  0.7761313  0.3745499  0.0195867    0.00000       Uiso       1.00
       C93          C  0.1186106  0.5512995  0.0513244    0.00000       Uiso       1.00
       C94          C  0.0804309  0.5242116  0.0624222    0.00000       Uiso       1.00
       C95          C  0.0425446  0.5083978  0.0463841    0.00000       Uiso       1.00
       C96          C  0.1186180  0.5623922  0.0242314    0.00000       Uiso       1.00
       C97          C  0.0805121  0.5463561  0.0084166    0.00000       Uiso       1.00
       C98          C  0.0413082  0.5193959  0.0194173    0.00000       Uiso       1.00
       H43          H  0.9860042  0.5129006  0.0547069    0.00000       Uiso       1.00
       H44          H  0.0277980  0.5546995  0.0129215    0.00000       Uiso       1.00
       C99          C  0.8813671  0.4486594  0.0513193    0.00000       Uiso       1.00
      C100          C  0.9195421  0.4757510  0.0624125    0.00000       Uiso       1.00
      C101          C  0.9574232  0.4915659  0.0463738    0.00000       Uiso       1.00
      C102          C  0.8813592  0.4375618  0.0242314    0.00000       Uiso       1.00
      C103          C  0.9194646  0.4535983  0.0084166    0.00000       Uiso       1.00
      C104          C  0.9586655  0.4805664  0.0194122    0.00000       Uiso       1.00
       H45          H  0.0139540  0.4870573  0.0547118    0.00000       Uiso       1.00
       H46          H  0.9721888  0.4452795  0.0129230    0.00000       Uiso       1.00
      C105          C  0.9840090  0.5513042  0.9486799    0.00000       Uiso       1.00
      C106          C  0.9679973  0.5242108  0.9375871    0.00000       Uiso       1.00
      C107          C  0.9742475  0.5083948  0.9536284    0.00000       Uiso       1.00
      C108          C  0.0061946  0.5623994  0.9757682    0.00000       Uiso       1.00
      C109          C  0.0122288  0.5463649  0.9915826    0.00000       Uiso       1.00
      C110          C  0.9974977  0.5193988  0.9805868    0.00000       Uiso       1.00
       H47          H  0.0398033  0.5129015  0.9452780    0.00000       Uiso       1.00
       H48          H  0.0816005  0.5546869  0.9870777    0.00000       Uiso       1.00
      C111          C  0.0159746  0.4486674  0.9486791    0.00000       Uiso       1.00
      C112          C  0.0319717  0.4757551  0.9375824    0.00000       Uiso       1.00
      C113          C  0.0257166  0.4915687  0.9536176    0.00000       Uiso       1.00
      C114          C  0.9937993  0.4375755  0.9757713    0.00000       Uiso       1.00
      C115          C  0.9877692  0.4536132  0.9915860    0.00000       Uiso       1.00
      C116          C  0.0024854  0.4805726  0.9805844    0.00000       Uiso       1.00
       H49          H  0.9601330  0.4870471  0.9453106    0.00000       Uiso       1.00
       H50          H  0.9183762  0.4452619  0.9870819    0.00000       Uiso       1.00
      C117          C  0.0214649  0.5892499  0.9868016    0.00000       Uiso       1.00
      C118          C  0.0148483  0.6048436  0.9712332    0.00000       Uiso       1.00
      C119          C  0.9453741  0.5131763  0.9107403    0.00000       Uiso       1.00
      C120          C  0.9387435  0.5287529  0.8951475    0.00000       Uiso       1.00
      C121          C  0.0809845  0.5131814  0.0892721    0.00000       Uiso       1.00
      C122          C  0.1187659  0.5287531  0.1048656    0.00000       Uiso       1.00
      C123          C  0.1570514  0.5892418  0.0131960    0.00000       Uiso       1.00
      C124          C  0.1948522  0.6048360  0.0287676    0.00000       Uiso       1.00
      C125          C  0.9785349  0.4107264  0.9868048    0.00000       Uiso       1.00
      C126          C  0.9851484  0.3951326  0.9712304    0.00000       Uiso       1.00
      C127          C  0.0545822  0.4867870  0.9107316    0.00000       Uiso       1.00
      C128          C  0.0612226  0.4712167  0.8951399    0.00000       Uiso       1.00
      C129          C  0.9189904  0.4867844  0.0892608    0.00000       Uiso       1.00
      C130          C  0.8812139  0.4712146  0.1048538    0.00000       Uiso       1.00
       H51          H  0.9730064  0.3745615  0.9804116    0.00000       Uiso       1.00
       H52          H  0.9614667  0.4017705  0.0076056    0.00000       Uiso       1.00
       H53          H  0.0788285  0.4803970  0.8745668    0.00000       Uiso       1.00
       H54          H  0.0672638  0.5075821  0.9017681    0.00000       Uiso       1.00
       H55          H  0.0385353  0.5982105  0.0075996    0.00000       Uiso       1.00
       H56          H  0.0269933  0.6254162  0.9804159    0.00000       Uiso       1.00
       H57          H  0.9326759  0.4923717  0.9017861    0.00000       Uiso       1.00
       H58          H  0.9211294  0.5195735  0.8745775    0.00000       Uiso       1.00
       H59          H  0.9478952  0.5075822  0.0982221    0.00000       Uiso       1.00
       H60          H  0.8819767  0.4804017  0.1254243    0.00000       Uiso       1.00
       H61          H  0.2238532  0.6254094  0.0195850    0.00000       Uiso       1.00
       H62          H  0.1579013  0.5982022  0.9923958    0.00000       Uiso       1.00
       H63          H  0.0520679  0.4923819  0.0982285    0.00000       Uiso       1.00
       H64          H  0.1180165  0.5195739  0.1254411    0.00000       Uiso       1.00
      C131          C  0.0375610  0.1355443  0.9020383    0.00000       Uiso       1.00
      C132          C  0.0148052  0.1240807  0.9285702    0.00000       Uiso       1.00
      C133          C  0.0074115  0.1013683  0.9442840    0.00000       Uiso       1.00
      C134          C  0.0526304  0.1240819  0.8907450    0.00000       Uiso       1.00
      C135          C  0.0456368  0.1013718  0.9060677    0.00000       Uiso       1.00
      C136          C  0.0228943  0.0899343  0.9329816    0.00000       Uiso       1.00
       H65          H  0.0711587  0.1331211  0.8690939    0.00000       Uiso       1.00
       H66          H  0.0021924  0.1331189  0.9380602    0.00000       Uiso       1.00
      C137          C  0.7664416  0.8644239  0.0980081    0.00000       Uiso       1.00
      C138          C  0.7666124  0.8758875  0.0714764    0.00000       Uiso       1.00
      C139          C  0.8046463  0.8986000  0.0557615    0.00000       Uiso       1.00
      C140          C  0.8044360  0.8758863  0.1093008    0.00000       Uiso       1.00
      C141          C  0.8428623  0.8986002  0.0939815    0.00000       Uiso       1.00
      C142          C  0.8429963  0.9100372  0.0670679    0.00000       Uiso       1.00
       H67          H  0.8048862  0.8668470  0.1309518    0.00000       Uiso       1.00
       H68          H  0.7359230  0.8668493  0.0619869    0.00000       Uiso       1.00
      C143          C  0.9624221  0.8644303  0.9020274    0.00000       Uiso       1.00
      C144          C  0.9851767  0.8758922  0.9285599    0.00000       Uiso       1.00
      C145          C  0.9925638  0.8986017  0.9442754    0.00000       Uiso       1.00
      C146          C  0.9473532  0.8758935  0.8907355    0.00000       Uiso       1.00
      C147          C  0.9543535  0.8986070  0.9060563    0.00000       Uiso       1.00
      C148          C  0.9770911  0.9100409  0.9329714    0.00000       Uiso       1.00
       H69          H  0.9288259  0.8668556  0.8690839    0.00000       Uiso       1.00
       H70          H  0.9977891  0.8668534  0.9380487    0.00000       Uiso       1.00
      C149          C  0.2335329  0.1355379  0.0980149    0.00000       Uiso       1.00
      C150          C  0.2333632  0.1240760  0.0714822    0.00000       Uiso       1.00
      C151          C  0.1953303  0.1013638  0.0557675    0.00000       Uiso       1.00
      C152          C  0.1955380  0.1240748  0.1093074    0.00000       Uiso       1.00
      C153          C  0.1571140  0.1013659  0.0939835    0.00000       Uiso       1.00
      C154          C  0.1569822  0.0899295  0.0670705    0.00000       Uiso       1.00
      C155          C  0.9999894  0.9999846  0.0000228    0.00000       Uiso       1.00
       H71          H  0.1950867  0.1331126  0.1309592    0.00000       Uiso       1.00
       H72          H  0.2640531  0.1331149  0.0619929    0.00000       Uiso       1.00
      C156          C  0.8812142  0.9099803  0.1048825    0.00000       Uiso       1.00
      C157          C  0.9189962  0.9321923  0.0892926    0.00000       Uiso       1.00
       H73          H  0.9479095  0.9403092  0.0982518    0.00000       Uiso       1.00
       H74          H  0.8819736  0.9015564  0.1254541    0.00000       Uiso       1.00
      C158          C  0.0159740  0.0672905  0.9487073    0.00000       Uiso       1.00
      C159          C  0.9937819  0.0561975  0.9757947    0.00000       Uiso       1.00
      C160          C  0.9877468  0.0341247  0.9916083    0.00000       Uiso       1.00
      C161          C  0.0319823  0.0562058  0.9376146    0.00000       Uiso       1.00
      C162          C  0.0257267  0.0341356  0.9536505    0.00000       Uiso       1.00
      C163          C  0.0024808  0.0218908  0.9806103    0.00000       Uiso       1.00
       H75          H  0.9183826  0.9730830  0.9871033    0.00000       Uiso       1.00
       H76          H  0.9601644  0.9730788  0.9453050    0.00000       Uiso       1.00
      C164          C  0.8813713  0.9326850  0.0513442    0.00000       Uiso       1.00
      C165          C  0.8813628  0.9437692  0.0242524    0.00000       Uiso       1.00
      C166          C  0.9194683  0.9658360  0.0084384    0.00000       Uiso       1.00
      C167          C  0.9195480  0.9437746  0.0624428    0.00000       Uiso       1.00
      C168          C  0.9574323  0.9658441  0.0464072    0.00000       Uiso       1.00
      C169          C  0.9586710  0.9780778  0.0194390    0.00000       Uiso       1.00
       H77          H  0.9721678  0.0268737  0.0129489    0.00000       Uiso       1.00
       H78          H  0.0139689  0.0268864  0.0547280    0.00000       Uiso       1.00
      C170          C  0.9840131  0.9326865  0.9487003    0.00000       Uiso       1.00
      C171          C  0.0061869  0.9437674  0.9757947    0.00000       Uiso       1.00
      C172          C  0.0122106  0.9658329  0.9916111    0.00000       Uiso       1.00
      C173          C  0.9680148  0.9437761  0.9376048    0.00000       Uiso       1.00
      C174          C  0.9742678  0.9658441  0.9536399    0.00000       Uiso       1.00
      C175          C  0.9974981  0.9780793  0.9806069    0.00000       Uiso       1.00
       H79          H  0.0816089  0.0268809  0.9871066    0.00000       Uiso       1.00
       H80          H  0.0398234  0.0268937  0.9453199    0.00000       Uiso       1.00
      C176          C  0.1186092  0.0672841  0.0513428    0.00000       Uiso       1.00
      C177          C  0.1186168  0.0561946  0.0242548    0.00000       Uiso       1.00
      C178          C  0.0805141  0.0341262  0.0084399    0.00000       Uiso       1.00
      C179          C  0.0804341  0.0562011  0.0624339    0.00000       Uiso       1.00
      C180          C  0.0425527  0.0341336  0.0463949    0.00000       Uiso       1.00
      C181          C  0.0413118  0.0218905  0.0194352    0.00000       Uiso       1.00
       H81          H  0.0277604  0.9730655  0.0129598    0.00000       Uiso       1.00
       H82          H  0.9860142  0.9730921  0.0547445    0.00000       Uiso       1.00
      C182          C  0.9454027  0.9321967  0.9107535    0.00000       Uiso       1.00
      C183          C  0.9387620  0.9099871  0.8951593    0.00000       Uiso       1.00
      C184          C  0.0214445  0.9321786  0.9868294    0.00000       Uiso       1.00
      C185          C  0.0148312  0.9099721  0.9712523    0.00000       Uiso       1.00
      C186          C  0.9785149  0.0677807  0.9868248    0.00000       Uiso       1.00
      C187          C  0.9851319  0.0899909  0.9712535    0.00000       Uiso       1.00
      C188          C  0.0546028  0.0677906  0.9107654    0.00000       Uiso       1.00
      C189          C  0.0612386  0.0899977  0.8951715    0.00000       Uiso       1.00
      C190          C  0.0809836  0.0677847  0.0892834    0.00000       Uiso       1.00
      C191          C  0.1187642  0.0899917  0.1048784    0.00000       Uiso       1.00
      C192          C  0.1570468  0.0677738  0.0132238    0.00000       Uiso       1.00
      C193          C  0.1948480  0.0899842  0.0287952    0.00000       Uiso       1.00
      C194          C  0.8429303  0.9321842  0.0132179    0.00000       Uiso       1.00
      C195          C  0.8051299  0.9099767  0.0287868    0.00000       Uiso       1.00
       H83          H  0.1180107  0.0984199  0.1254497    0.00000       Uiso       1.00
       H84          H  0.0520703  0.0596718  0.0982386    0.00000       Uiso       1.00
       H85          H  0.2238472  0.0984104  0.0196156    0.00000       Uiso       1.00
       H86          H  0.1578980  0.0596611  0.9924280    0.00000       Uiso       1.00
       H87          H  0.9327154  0.9403067  0.9017926    0.00000       Uiso       1.00
       H88          H  0.9211530  0.9015601  0.8745859    0.00000       Uiso       1.00
       H89          H  0.0385038  0.9402844  0.0076350    0.00000       Uiso       1.00
       H90          H  0.0269661  0.9015373  0.9804320    0.00000       Uiso       1.00
       H91          H  0.8420770  0.9402917  0.9924197    0.00000       Uiso       1.00
       H92          H  0.7761356  0.9015524  0.0195989    0.00000       Uiso       1.00
       H93          H  0.0788498  0.0984261  0.8745984    0.00000       Uiso       1.00
       H94          H  0.0672929  0.0596807  0.9018051    0.00000       Uiso       1.00
       H95          H  0.9614406  0.0596629  0.0076244    0.00000       Uiso       1.00
       H96          H  0.9729855  0.0984201  0.9804324    0.00000       Uiso       1.00
      C196          C  0.7681519  0.6234676  0.6983355    0.00000       Uiso       1.00
      C197          C  0.7915153  0.6236277  0.7190617    0.00000       Uiso       1.00
      C198          C  0.7947792  0.6033242  0.7171985    0.00000       Uiso       1.00
      C199          C  0.8165553  0.6028547  0.7389979    0.00000       Uiso       1.00
      C200          C  0.8335931  0.6215934  0.7641088    0.00000       Uiso       1.00
      C201          C  0.8293774  0.6415768  0.7657614    0.00000       Uiso       1.00
      C202          C  0.8113023  0.6444513  0.7426398    0.00000       Uiso       1.00
        O1          O  0.7455889  0.6038638  0.6746655    0.00000       Uiso       1.00
       H97          H  0.7803621  0.5878059  0.6987056    0.00000       Uiso       1.00
       H98          H  0.8193597  0.5874425  0.7360047    0.00000       Uiso       1.00
       H99          H  0.8377885  0.6536921  0.7859961    0.00000       Uiso       1.00
      C203          C  0.9252329  0.8016921  0.8552922    0.00000       Uiso       1.00
      C204          C  0.9046890  0.7809752  0.8320785    0.00000       Uiso       1.00
      C205          C  0.8862273  0.7828248  0.8085157    0.00000       Uiso       1.00
      C206          C  0.8639511  0.7610186  0.7862761    0.00000       Uiso       1.00
      C207          C  0.8575828  0.7359100  0.7879813    0.00000       Uiso       1.00
      C208          C  0.8759546  0.7342811  0.8121703    0.00000       Uiso       1.00
      C209          C  0.9019607  0.7574111  0.8331103    0.00000       Uiso       1.00
        O2          O  0.9292441  0.8253362  0.8582685    0.00000       Uiso       1.00
      H100          H  0.8891698  0.8013020  0.8074181    0.00000       Uiso       1.00
      H101          H  0.8515136  0.7640032  0.7680668    0.00000       Uiso       1.00
      H102          H  0.8678533  0.7140570  0.8158869    0.00000       Uiso       1.00
      C210          C  0.9463806  0.6446836  0.8764802    0.00000       Uiso       1.00
      C211          C  0.9489008  0.6679055  0.8762935    0.00000       Uiso       1.00
      C212          C  0.9743600  0.6914835  0.8965818    0.00000       Uiso       1.00
      C213          C  0.9748404  0.7137474  0.8970370    0.00000       Uiso       1.00
      C214          C  0.9480336  0.7120519  0.8782972    0.00000       Uiso       1.00
      C215          C  0.9221681  0.6878469  0.8583160    0.00000       Uiso       1.00
      C216          C  0.9242977  0.6668735  0.8554643    0.00000       Uiso       1.00
        O3          O  0.9670872  0.6417271  0.8960907    0.00000       Uiso       1.00
      H103          H  0.9939321  0.6925660  0.9121076    0.00000       Uiso       1.00
      H104          H  0.9960583  0.7319660  0.9124470    0.00000       Uiso       1.00
      H105          H  0.8982406  0.6841501  0.8461924    0.00000       Uiso       1.00
      C217          C  0.9205279  0.6211183  0.8572958    0.00000       Uiso       1.00
      C218          C  0.8973837  0.6200245  0.8353730    0.00000       Uiso       1.00
      C219          C  0.8717645  0.5962238  0.8153365    0.00000       Uiso       1.00
      C220          C  0.8500879  0.5960890  0.7928357    0.00000       Uiso       1.00
      C221          C  0.8554349  0.6205989  0.7887813    0.00000       Uiso       1.00
      C222          C  0.8821672  0.6446520  0.8088235    0.00000       Uiso       1.00
      C223          C  0.9007748  0.6438642  0.8334172    0.00000       Uiso       1.00
        O4          O  0.9213249  0.5999362  0.8618942    0.00000       Uiso       1.00
      H106          H  0.8684952  0.5776387  0.8172745    0.00000       Uiso       1.00
      H107          H  0.8295285  0.5767084  0.7786503    0.00000       Uiso       1.00
      H108          H  0.8905888  0.6648946  0.8043277    0.00000       Uiso       1.00
      C224          C  0.9421928  0.7994328  0.8788341    0.00000       Uiso       1.00
      C225          C  0.9420964  0.7773975  0.8799109    0.00000       Uiso       1.00
      C226          C  0.9603906  0.7756121  0.9036791    0.00000       Uiso       1.00
      C227          C  0.9613678  0.7540803  0.9037974    0.00000       Uiso       1.00
      C228          C  0.9461920  0.7348863  0.8793040    0.00000       Uiso       1.00
      C229          C  0.9287587  0.7375367  0.8552821    0.00000       Uiso       1.00
      C230          C  0.9235535  0.7569270  0.8560891    0.00000       Uiso       1.00
        O5          O  0.9595835  0.8214154  0.9000130    0.00000       Uiso       1.00
      H109          H  0.9737988  0.7909386  0.9222598    0.00000       Uiso       1.00
      H110          H  0.9744318  0.7529308  0.9231600    0.00000       Uiso       1.00
      H111          H  0.9213954  0.7257083  0.8350372    0.00000       Uiso       1.00
      C231          C  0.7638295  0.6426875  0.7006005    0.00000       Uiso       1.00
      C232          C  0.7846683  0.6646100  0.7226491    0.00000       Uiso       1.00
      C233          C  0.7809862  0.6846918  0.7244264    0.00000       Uiso       1.00
      C234          C  0.8033778  0.7072043  0.7459542    0.00000       Uiso       1.00
      C235          C  0.8318754  0.7112157  0.7651629    0.00000       Uiso       1.00
      C236          C  0.8357939  0.6911183  0.7625290    0.00000       Uiso       1.00
      C237          C  0.8103982  0.6665266  0.7431310    0.00000       Uiso       1.00
        O6          O  0.7380988  0.6381226  0.6785995    0.00000       Uiso       1.00
      H112          H  0.7604966  0.6827740  0.7090876    0.00000       Uiso       1.00
      H113          H  0.7982430  0.7214265  0.7470851    0.00000       Uiso       1.00
      H114          H  0.8604915  0.6955748  0.7743722    0.00000       Uiso       1.00
        B1          B  0.7266474  0.6133904  0.6622882    0.00000       Uiso       1.00
        B2          B  0.9511272  0.8377091  0.8867438    0.00000       Uiso       1.00
        B3          B  0.9509506  0.6132364  0.8866057    0.00000       Uiso       1.00
      C238          C  0.2318403  0.3765202  0.6983304    0.00000       Uiso       1.00
      C239          C  0.2084760  0.3763588  0.7190571    0.00000       Uiso       1.00
      C240          C  0.2052121  0.3966624  0.7171957    0.00000       Uiso       1.00
      C241          C  0.1834351  0.3971305  0.7389957    0.00000       Uiso       1.00
      C242          C  0.1663962  0.3783902  0.7641052    0.00000       Uiso       1.00
      C243          C  0.1706118  0.3584066  0.7657560    0.00000       Uiso       1.00
      C244          C  0.1886879  0.3555336  0.7426339    0.00000       Uiso       1.00
        O7          O  0.2544043  0.3961256  0.6746617    0.00000       Uiso       1.00
      H115          H  0.2196300  0.4121820  0.6987039    0.00000       Uiso       1.00
      H116          H  0.1806308  0.4125429  0.7360038    0.00000       Uiso       1.00
      H117          H  0.1621998  0.3462900  0.7859899    0.00000       Uiso       1.00
      C245          C  0.0747523  0.1982855  0.8552752    0.00000       Uiso       1.00
      C246          C  0.0952973  0.2190040  0.8320628    0.00000       Uiso       1.00
      C247          C  0.1137600  0.2171558  0.8084994    0.00000       Uiso       1.00
      C248          C  0.1360371  0.2389635  0.7862612    0.00000       Uiso       1.00
      C249          C  0.1424054  0.2640721  0.7879685    0.00000       Uiso       1.00
      C250          C  0.1240325  0.2656993  0.8121580    0.00000       Uiso       1.00
      C251          C  0.0980255  0.2425680  0.8330966    0.00000       Uiso       1.00
        O8          O  0.0707410  0.1746413  0.8582495    0.00000       Uiso       1.00
      H118          H  0.1108176  0.1986788  0.8074003    0.00000       Uiso       1.00
      H119          H  0.1484755  0.2359801  0.7680513    0.00000       Uiso       1.00
      H120          H  0.1321337  0.2859232  0.8158761    0.00000       Uiso       1.00
      C252          C  0.0536038  0.3552926  0.8764771    0.00000       Uiso       1.00
      C253          C  0.0510835  0.3320708  0.8762884    0.00000       Uiso       1.00
      C254          C  0.0256234  0.3084914  0.8965752    0.00000       Uiso       1.00
      C255          C  0.0251430  0.2862276  0.8970284    0.00000       Uiso       1.00
      C256          C  0.0519506  0.2879243  0.8782883    0.00000       Uiso       1.00
      C257          C  0.0778170  0.3121305  0.8583086    0.00000       Uiso       1.00
      C258          C  0.0756875  0.3331041  0.8554588    0.00000       Uiso       1.00
        O9          O  0.0328962  0.3582479  0.8960881    0.00000       Uiso       1.00
      H121          H  0.0060506  0.3074079  0.9121013    0.00000       Uiso       1.00
      H122          H  0.0039244  0.2680079  0.9124373    0.00000       Uiso       1.00
      H123          H  0.1017450  0.3158281  0.8461848    0.00000       Uiso       1.00
      C259          C  0.0794572  0.3788592  0.8572943    0.00000       Uiso       1.00
      C260          C  0.1026024  0.3799545  0.8353710    0.00000       Uiso       1.00
      C261          C  0.1282225  0.4037564  0.8153360    0.00000       Uiso       1.00
      C262          C  0.1499001  0.4038927  0.7928346    0.00000       Uiso       1.00
      C263          C  0.1445533  0.3793831  0.7887783    0.00000       Uiso       1.00
      C264          C  0.1178201  0.3553287  0.8088190    0.00000       Uiso       1.00
      C265          C  0.0992114  0.3561149  0.8334131    0.00000       Uiso       1.00
       O10          O  0.0786600  0.4000410  0.8618944    0.00000       Uiso       1.00
      H124          H  0.1314917  0.4223414  0.8172755    0.00000       Uiso       1.00
      H125          H  0.1704601  0.4232742  0.7786506    0.00000       Uiso       1.00
      H126          H  0.1093986  0.3350864  0.8043216    0.00000       Uiso       1.00
      C266          C  0.0577914  0.2005433  0.8788176    0.00000       Uiso       1.00
      C267          C  0.0578877  0.2225786  0.8798964    0.00000       Uiso       1.00
      C268          C  0.0395925  0.2243625  0.9036651    0.00000       Uiso       1.00
      C269          C  0.0386153  0.2458942  0.9037851    0.00000       Uiso       1.00
      C270          C  0.0537922  0.2650898  0.8792931    0.00000       Uiso       1.00
      C271          C  0.0712265  0.2624409  0.8552707    0.00000       Uiso       1.00
      C272          C  0.0764317  0.2430506  0.8560758    0.00000       Uiso       1.00
       O11          O  0.0403997  0.1785593  0.8999948    0.00000       Uiso       1.00
      H127          H  0.0261835  0.2090347  0.9222447    0.00000       Uiso       1.00
      H128          H  0.0255504  0.2470424  0.9231482    0.00000       Uiso       1.00
      H129          H  0.0785908  0.2742707  0.8350265    0.00000       Uiso       1.00
      C273          C  0.2361626  0.3573002  0.7005938    0.00000       Uiso       1.00
      C274          C  0.2153228  0.3353763  0.7226408    0.00000       Uiso       1.00
      C275          C  0.2190048  0.3152943  0.7244164    0.00000       Uiso       1.00
      C276          C  0.1966123  0.2927805  0.7459427    0.00000       Uiso       1.00
      C277          C  0.1681138  0.2887679  0.7651518    0.00000       Uiso       1.00
      C278          C  0.1641954  0.3088653  0.7625195    0.00000       Uiso       1.00
      C279          C  0.1895919  0.3334583  0.7431231    0.00000       Uiso       1.00
       O12          O  0.2618943  0.3618666  0.6785926    0.00000       Uiso       1.00
      H130          H  0.2394951  0.3172131  0.7090773    0.00000       Uiso       1.00
      H131          H  0.2017469  0.2785582  0.7470723    0.00000       Uiso       1.00
      H132          H  0.1394973  0.3044081  0.7743629    0.00000       Uiso       1.00
        B4          B  0.2733464  0.3865998  0.6622831    0.00000       Uiso       1.00
        B5          B  0.0488566  0.1622665  0.8867242    0.00000       Uiso       1.00
        B6          B  0.0490333  0.3867392  0.8866054    0.00000       Uiso       1.00
      C280          C  0.4787961  0.6234805  0.3016740    0.00000       Uiso       1.00
      C281          C  0.4557543  0.6236420  0.2809477    0.00000       Uiso       1.00
      C282          C  0.4118833  0.6033384  0.2828096    0.00000       Uiso       1.00
      C283          C  0.3891695  0.6028702  0.2610102    0.00000       Uiso       1.00
      C284          C  0.4096107  0.6216106  0.2359006    0.00000       Uiso       1.00
      C285          C  0.4537933  0.6415941  0.2342493    0.00000       Uiso       1.00
      C286          C  0.4776159  0.6444671  0.2573710    0.00000       Uiso       1.00
       O13          O  0.4621498  0.6038751  0.3253426    0.00000       Uiso       1.00
      H133          H  0.3952624  0.5878187  0.3013015    0.00000       Uiso       1.00
      H134          H  0.3555405  0.5874578  0.2640024    0.00000       Uiso       1.00
      H135          H  0.4696141  0.6537108  0.2140154    0.00000       Uiso       1.00
      C287          C  0.6781737  0.8017152  0.1447288    0.00000       Uiso       1.00
      C288          C  0.6572822  0.7809967  0.1679411    0.00000       Uiso       1.00
      C289          C  0.6794418  0.7828450  0.1915041    0.00000       Uiso       1.00
      C290          C  0.6581042  0.7610373  0.2137423    0.00000       Uiso       1.00
      C291          C  0.6142553  0.7359287  0.2120354    0.00000       Uiso       1.00
      C292          C  0.5926273  0.7343014  0.1878463    0.00000       Uiso       1.00
      C293          C  0.6128825  0.7574328  0.1669078    0.00000       Uiso       1.00
       O14          O  0.7214508  0.8253595  0.1417541    0.00000       Uiso       1.00
      H136          H  0.7134535  0.8013220  0.1926030    0.00000       Uiso       1.00
      H137          H  0.6765097  0.7640207  0.2319519    0.00000       Uiso       1.00
      H138          H  0.5602809  0.7140776  0.1841285    0.00000       Uiso       1.00
      C294          C  0.3430110  0.6447082  0.1235306    0.00000       Uiso       1.00
      C295          C  0.3869345  0.6679300  0.1237188    0.00000       Uiso       1.00
      C296          C  0.4086325  0.6915094  0.1034321    0.00000       Uiso       1.00
      C297          C  0.4526798  0.7137733  0.1029783    0.00000       Uiso       1.00
      C298          C  0.4760943  0.7120765  0.1217180    0.00000       Uiso       1.00
      C299          C  0.4535487  0.6878703  0.1416976    0.00000       Uiso       1.00
      C300          C  0.4094721  0.6668966  0.1445479    0.00000       Uiso       1.00
       O15          O  0.3163925  0.6417529  0.1039200    0.00000       Uiso       1.00
      H139          H  0.3912263  0.6925928  0.0879063    0.00000       Uiso       1.00
      H140          H  0.4679001  0.7319929  0.0875695    0.00000       Uiso       1.00
      H141          H  0.4700818  0.6841726  0.1538211    0.00000       Uiso       1.00
      C301          C  0.3217318  0.6211416  0.1427134    0.00000       Uiso       1.00
      C302          C  0.3426869  0.6200463  0.1646362    0.00000       Uiso       1.00
      C303          C  0.3207035  0.5962443  0.1846711    0.00000       Uiso       1.00
      C304          C  0.3421091  0.5961081  0.2071720    0.00000       Uiso       1.00
      C305          C  0.3857815  0.6206177  0.2112280    0.00000       Uiso       1.00
      C306          C  0.4071566  0.6446721  0.1911873    0.00000       Uiso       1.00
      C307          C  0.3869751  0.6438859  0.1665936    0.00000       Uiso       1.00
       O16          O  0.2785709  0.5999597  0.1381136    0.00000       Uiso       1.00
      H142          H  0.2868028  0.5776593  0.1827320    0.00000       Uiso       1.00
      H143          H  0.3239065  0.5767266  0.2213561    0.00000       Uiso       1.00
      H144          H  0.4392198  0.6649144  0.1956844    0.00000       Uiso       1.00
      C308          C  0.6566967  0.7994574  0.1211868    0.00000       Uiso       1.00
      C309          C  0.6127226  0.7774222  0.1201085    0.00000       Uiso       1.00
      C310          C  0.5908591  0.7756383  0.0963402    0.00000       Uiso       1.00
      C311          C  0.5468186  0.7541066  0.0962206    0.00000       Uiso       1.00
      C312          C  0.5236047  0.7349109  0.1207127    0.00000       Uiso       1.00
      C313          C  0.5463373  0.7375599  0.1447347    0.00000       Uiso       1.00
      C314          C  0.5903231  0.7569502  0.1439291    0.00000       Uiso       1.00
       O17          O  0.6832727  0.8214415  0.1000094    0.00000       Uiso       1.00
      H145          H  0.6081052  0.7909661  0.0777605    0.00000       Uiso       1.00
      H146          H  0.5314568  0.7529584  0.0768578    0.00000       Uiso       1.00
      H147          H  0.5300425  0.7257301  0.1649789    0.00000       Uiso       1.00
      C315          C  0.5215584  0.6427006  0.2994102    0.00000       Uiso       1.00
      C316          C  0.5445660  0.6646246  0.2773630    0.00000       Uiso       1.00
      C317          C  0.5884118  0.6847065  0.2755870    0.00000       Uiso       1.00
      C318          C  0.6110463  0.7072203  0.2540607    0.00000       Uiso       1.00
      C319          C  0.5905727  0.7112330  0.2348522    0.00000       Uiso       1.00
      C320          C  0.5464595  0.6911354  0.2374849    0.00000       Uiso       1.00
      C321          C  0.5226705  0.6665425  0.2568813    0.00000       Uiso       1.00
       O18          O  0.5381578  0.6381342  0.3214109    0.00000       Uiso       1.00
      H148          H  0.6050647  0.6827877  0.2909257    0.00000       Uiso       1.00
      H149          H  0.6446256  0.7214426  0.2529307    0.00000       Uiso       1.00
      H150          H  0.5306756  0.6955927  0.2256419    0.00000       Uiso       1.00
        B7          B  0.5001438  0.6134009  0.3377206    0.00000       Uiso       1.00
        B8          B  0.7243152  0.8377342  0.1132795    0.00000       Uiso       1.00
        B9          B  0.2755473  0.6132616  0.1134030    0.00000       Uiso       1.00
      C322          C  0.5212137  0.3765332  0.3016629    0.00000       Uiso       1.00
      C323          C  0.5442564  0.3763731  0.2809362    0.00000       Uiso       1.00
      C324          C  0.5881273  0.3966765  0.2827989    0.00000       Uiso       1.00
      C325          C  0.6108421  0.3971461  0.2609990    0.00000       Uiso       1.00
      C326          C  0.5904019  0.3784074  0.2358883    0.00000       Uiso       1.00
      C327          C  0.5462194  0.3584239  0.2342362    0.00000       Uiso       1.00
      C328          C  0.5223958  0.3555494  0.2573581    0.00000       Uiso       1.00
       O19          O  0.5378589  0.3961370  0.3253329    0.00000       Uiso       1.00
      H151          H  0.6047474  0.4121950  0.3012918    0.00000       Uiso       1.00
      H152          H  0.6444709  0.4125583  0.2639919    0.00000       Uiso       1.00
      H153          H  0.5303996  0.3463086  0.2140016    0.00000       Uiso       1.00
      C329          C  0.3218430  0.1983087  0.1447066    0.00000       Uiso       1.00
      C330          C  0.3427335  0.2190257  0.1679203    0.00000       Uiso       1.00
      C331          C  0.3205729  0.2171759  0.1914836    0.00000       Uiso       1.00
      C332          C  0.3419095  0.2389822  0.2137231    0.00000       Uiso       1.00
      C333          C  0.3857584  0.2640908  0.2120175    0.00000       Uiso       1.00
      C334          C  0.4073875  0.2657197  0.1878282    0.00000       Uiso       1.00
      C335          C  0.3871332  0.2425897  0.1668881    0.00000       Uiso       1.00
       O20          O  0.2785660  0.1746646  0.1417307    0.00000       Uiso       1.00
      H154          H  0.2865611  0.1986988  0.1925815    0.00000       Uiso       1.00
      H155          H  0.3235032  0.2359975  0.2319328    0.00000       Uiso       1.00
      H156          H  0.4397342  0.2859438  0.1841113    0.00000       Uiso       1.00
      C336          C  0.6570067  0.3553172  0.1235149    0.00000       Uiso       1.00
      C337          C  0.6130832  0.3320953  0.1237021    0.00000       Uiso       1.00
      C338          C  0.5913861  0.3085172  0.1034138    0.00000       Uiso       1.00
      C339          C  0.5473388  0.2862534  0.1029590    0.00000       Uiso       1.00
      C340          C  0.5239235  0.2879489  0.1216993    0.00000       Uiso       1.00
      C341          C  0.5464682  0.3121539  0.1416805    0.00000       Uiso       1.00
      C342          C  0.5905446  0.3331273  0.1445317    0.00000       Uiso       1.00
       O21          O  0.6836259  0.3582737  0.1039040    0.00000       Uiso       1.00
      H157          H  0.6087929  0.3074348  0.0878875    0.00000       Uiso       1.00
      H158          H  0.5321192  0.2680348  0.0875489    0.00000       Uiso       1.00
      H159          H  0.5299345  0.3158507  0.1538046    0.00000       Uiso       1.00
      C343          C  0.6782850  0.3788824  0.1426993    0.00000       Uiso       1.00
      C344          C  0.6573290  0.3799763  0.1646226    0.00000       Uiso       1.00
      C345          C  0.6793114  0.4037770  0.1846591    0.00000       Uiso       1.00
      C346          C  0.6579049  0.4039118  0.2071605    0.00000       Uiso       1.00
      C347          C  0.6142324  0.3794019  0.2112152    0.00000       Uiso       1.00
      C348          C  0.5928581  0.3553488  0.1911729    0.00000       Uiso       1.00
      C349          C  0.6130407  0.3561366  0.1665789    0.00000       Uiso       1.00
       O22          O  0.7214462  0.4000646  0.1381005    0.00000       Uiso       1.00
      H160          H  0.7132123  0.4223621  0.1827209    0.00000       Uiso       1.00
      H161          H  0.6761068  0.4232923  0.2213458    0.00000       Uiso       1.00
      H162          H  0.5607947  0.3351062  0.1956690    0.00000       Uiso       1.00
      C350          C  0.3433210  0.2005680  0.1211643    0.00000       Uiso       1.00
      C351          C  0.3872952  0.2226033  0.1200870    0.00000       Uiso       1.00
      C352          C  0.4091598  0.2243888  0.0963184    0.00000       Uiso       1.00
      C353          C  0.4532004  0.2459205  0.0961997    0.00000       Uiso       1.00
      C354          C  0.4764131  0.2651145  0.1206930    0.00000       Uiso       1.00
      C355          C  0.4536794  0.2624640  0.1447153    0.00000       Uiso       1.00
      C356          C  0.4096937  0.2430738  0.1439089    0.00000       Uiso       1.00
       O23          O  0.3167461  0.1785853  0.0999856    0.00000       Uiso       1.00
      H163          H  0.3919145  0.2090622  0.0777378    0.00000       Uiso       1.00
      H164          H  0.4685628  0.2470699  0.0768368    0.00000       Uiso       1.00
      H165          H  0.4699733  0.2742925  0.1649602    0.00000       Uiso       1.00
      C357          C  0.4784515  0.3573133  0.2993983    0.00000       Uiso       1.00
      C358          C  0.4554449  0.3353907  0.2773498    0.00000       Uiso       1.00
      C359          C  0.4115991  0.3153089  0.2755730    0.00000       Uiso       1.00
      C360          C  0.3889656  0.2927965  0.2540452    0.00000       Uiso       1.00
      C361          C  0.4094401  0.2887851  0.2348359    0.00000       Uiso       1.00
      C362          C  0.4535531  0.3088824  0.2374694    0.00000       Uiso       1.00
      C363          C  0.4773412  0.3334741  0.2568674    0.00000       Uiso       1.00
       O24          O  0.4618511  0.3618782  0.3213998    0.00000       Uiso       1.00
      H166          H  0.3949456  0.3172267  0.2909122    0.00000       Uiso       1.00
      H167          H  0.3553863  0.2785743  0.2529147    0.00000       Uiso       1.00
      H168          H  0.4693376  0.3044260  0.2256258    0.00000       Uiso       1.00
       B10          B  0.4998644  0.3866104  0.3377108    0.00000       Uiso       1.00
       B11          B  0.2757029  0.1622917  0.1132552    0.00000       Uiso       1.00
       B12          B  0.7244709  0.3867644  0.1133886    0.00000       Uiso       1.00
