data_107
_audit_creation_date              0000-00-00
_audit_creation_method            'LanYouShi'
_symmetry_space_group_name_H-M    'P1'
_cell_length_a                    39.6036987
_cell_length_b                    56.0080986
_cell_length_c                    39.6022987
_cell_angle_alpha                 90.0000000
_cell_angle_beta                  90.0000000
_cell_angle_gamma                 135.0000000
loop_
_atom_site_label
_atom_site_type_symbol
_atom_site_fract_x
_atom_site_fract_y
_atom_site_fract_z
_atom_site_U_iso_or_equiv
_atom_site_adp_type
_atom_site_occupancy
        C1          C  0.3347400  0.4173648  0.6143163    0.00000       Uiso       1.00
        C2          C  0.3520733  0.4045217  0.6012767    0.00000       Uiso       1.00
        C3          C  0.3846237  0.4182981  0.5776516    0.00000       Uiso       1.00
        C4          C  0.3520733  0.4475423  0.6012806    0.00000       Uiso       1.00
        C5          C  0.3887784  0.4635954  0.5748271    0.00000       Uiso       1.00
        C6          C  0.4036860  0.4477349  0.5645391    0.00000       Uiso       1.00
        H1          H  0.4160864  0.5105250  0.4298437    0.00000       Uiso       1.00
        H2          H  0.3382405  0.4583347  0.6115626    0.00000       Uiso       1.00
        H3          H  0.3382405  0.3798956  0.6115555    0.00000       Uiso       1.00
        C7          C  0.5000046  0.4173774  0.3856813    0.00000       Uiso       1.00
        C8          C  0.4569837  0.4045329  0.3987196    0.00000       Uiso       1.00
        C9          C  0.4615877  0.4251945  0.4251612    0.00000       Uiso       1.00
       C10          C  0.5430250  0.4475535  0.3987205    0.00000       Uiso       1.00
       C11          C  0.5480314  0.4663554  0.4223094    0.00000       Uiso       1.00
       C12          C  0.5082168  0.4559835  0.4354188    0.00000       Uiso       1.00
        H4          H  0.3949897  0.4055440  0.5700996    0.00000       Uiso       1.00
        H5          H  0.5784436  0.4583470  0.3884396    0.00000       Uiso       1.00
        H6          H  0.4215654  0.3799080  0.3884380    0.00000       Uiso       1.00
       C13          C  0.5000046  0.5826374  0.3856966    0.00000       Uiso       1.00
       C14          C  0.5430250  0.5954804  0.3987341    0.00000       Uiso       1.00
       C15          C  0.5384183  0.5748148  0.4251739    0.00000       Uiso       1.00
       C16          C  0.4569837  0.5524598  0.3987332    0.00000       Uiso       1.00
       C17          C  0.4519759  0.5336536  0.4223164    0.00000       Uiso       1.00
       C18          C  0.4917887  0.5440242  0.4354276    0.00000       Uiso       1.00
        H7          H  0.6049659  0.5944314  0.5701479    0.00000       Uiso       1.00
        H8          H  0.4215655  0.5416674  0.3884529    0.00000       Uiso       1.00
        H9          H  0.5784436  0.6201065  0.3884545    0.00000       Uiso       1.00
       C19          C  0.6652597  0.5826246  0.6143197    0.00000       Uiso       1.00
       C20          C  0.6479270  0.5954691  0.6012836    0.00000       Uiso       1.00
       C21          C  0.6153451  0.5816809  0.5776848    0.00000       Uiso       1.00
       C22          C  0.6479270  0.5524485  0.6012797    0.00000       Uiso       1.00
       C23          C  0.6112123  0.5363936  0.5748329    0.00000       Uiso       1.00
       C24          C  0.5962772  0.5522413  0.5645687    0.00000       Uiso       1.00
       H10          H  0.5839182  0.4894818  0.4298427    0.00000       Uiso       1.00
       C25          C  0.5000010  0.4999999  0.5000032    0.00000       Uiso       1.00
       H11          H  0.6617594  0.5416550  0.6115588    0.00000       Uiso       1.00
       H12          H  0.6617594  0.6200941  0.6115659    0.00000       Uiso       1.00
       C26          C  0.4382630  0.4605318  0.5412272    0.00000       Uiso       1.00
       C27          C  0.4124220  0.4943959  0.5581971    0.00000       Uiso       1.00
       C28          C  0.4481471  0.5073411  0.5330928    0.00000       Uiso       1.00
       C29          C  0.4602016  0.4893436  0.5239881    0.00000       Uiso       1.00
       H13          H  0.4038055  0.4351961  0.4785730    0.00000       Uiso       1.00
       H14          H  0.4461489  0.4984941  0.4636371    0.00000       Uiso       1.00
       H15          H  0.4039936  0.5084737  0.5646942    0.00000       Uiso       1.00
       C30          C  0.4236313  0.4180109  0.4418267    0.00000       Uiso       1.00
       C31          C  0.4334649  0.4407808  0.4669454    0.00000       Uiso       1.00
       C32          C  0.5171947  0.4777701  0.4587171    0.00000       Uiso       1.00
       C33          C  0.4815167  0.4708650  0.4760046    0.00000       Uiso       1.00
       H16          H  0.4490887  0.4476141  0.5363151    0.00000       Uiso       1.00
       H17          H  0.5333304  0.4685646  0.5214885    0.00000       Uiso       1.00
       H18          H  0.3870450  0.3954605  0.4353756    0.00000       Uiso       1.00
       C34          C  0.5763714  0.5819947  0.4418398    0.00000       Uiso       1.00
       C35          C  0.5665379  0.5592237  0.4669549    0.00000       Uiso       1.00
       C36          C  0.4828094  0.5222349  0.4587224    0.00000       Uiso       1.00
       C37          C  0.5184861  0.5291380  0.4760113    0.00000       Uiso       1.00
       H19          H  0.5508899  0.5523777  0.5363481    0.00000       Uiso       1.00
       H20          H  0.4667555  0.5314744  0.5215706    0.00000       Uiso       1.00
       H21          H  0.6129610  0.6045445  0.4353961    0.00000       Uiso       1.00
       C38          C  0.5616913  0.5394414  0.5412617    0.00000       Uiso       1.00
       C39          C  0.5876017  0.5056112  0.5581750    0.00000       Uiso       1.00
       C40          C  0.5518850  0.4926708  0.5330634    0.00000       Uiso       1.00
       C41          C  0.5397928  0.5106511  0.5239926    0.00000       Uiso       1.00
       H22          H  0.5961964  0.5648090  0.4785811    0.00000       Uiso       1.00
       H23          H  0.5538577  0.5015057  0.4636409    0.00000       Uiso       1.00
       H24          H  0.5960769  0.4915564  0.5646449    0.00000       Uiso       1.00
       C42          C  0.8030497  0.4173386  0.0826359    0.00000       Uiso       1.00
       C43          C  0.8462637  0.4475147  0.0954813    0.00000       Uiso       1.00
       C44          C  0.8886631  0.4662903  0.0817060    0.00000       Uiso       1.00
       C45          C  0.8032439  0.4044965  0.0524568    0.00000       Uiso       1.00
       C46          C  0.8503498  0.4251503  0.0364047    0.00000       Uiso       1.00
       C47          C  0.8914038  0.4559180  0.0522678    0.00000       Uiso       1.00
       H25          H  0.9757159  0.4055364  0.9894753    0.00000       Uiso       1.00
       H26          H  0.7683384  0.3798716  0.0416625    0.00000       Uiso       1.00
       H27          H  0.8467759  0.4583063  0.1201087    0.00000       Uiso       1.00
       C48          C  0.1969310  0.5825985  0.0826371    0.00000       Uiso       1.00
       C49          C  0.1537165  0.5524210  0.0954801    0.00000       Uiso       1.00
       C50          C  0.1112194  0.5363636  0.0748163    0.00000       Uiso       1.00
       C51          C  0.1967380  0.5954440  0.0524604    0.00000       Uiso       1.00
       C52          C  0.1593556  0.5816488  0.0336566    0.00000       Uiso       1.00
       C53          C  0.1168037  0.5522051  0.0440269    0.00000       Uiso       1.00
       H28          H  0.9193334  0.4894099  0.0944619    0.00000       Uiso       1.00
       H29          H  0.2316440  0.6200702  0.0416680    0.00000       Uiso       1.00
       H30          H  0.1532033  0.5416267  0.1201055    0.00000       Uiso       1.00
       C54          C  0.0316743  0.4173479  0.9173619    0.00000       Uiso       1.00
       C55          C  0.0488140  0.4475254  0.9045198    0.00000       Uiso       1.00
       C56          C  0.0384310  0.4635822  0.9251865    0.00000       Uiso       1.00
       C57          C  0.0057925  0.4045024  0.9475395    0.00000       Uiso       1.00
       C58          C  0.9960054  0.4182988  0.9663467    0.00000       Uiso       1.00
       C59          C  0.0123366  0.4477412  0.9559771    0.00000       Uiso       1.00
       H31          H  0.9403876  0.5105093  0.9055688    0.00000       Uiso       1.00
       H32          H  0.9914466  0.3798763  0.9583311    0.00000       Uiso       1.00
       H33          H  0.0698877  0.4583197  0.8798936    0.00000       Uiso       1.00
       C60          C  0.9683130  0.5826077  0.9173791    0.00000       Uiso       1.00
       C61          C  0.9511739  0.5524316  0.9045328    0.00000       Uiso       1.00
       C62          C  0.9559786  0.5336379  0.9183210    0.00000       Uiso       1.00
       C63          C  0.9941936  0.5954497  0.9475573    0.00000       Uiso       1.00
       C64          C  0.9999802  0.5747900  0.9636121    0.00000       Uiso       1.00
       C65          C  0.9794638  0.5440085  0.9477624    0.00000       Uiso       1.00
       H34          H  0.1645840  0.5944102  0.0105299    0.00000       Uiso       1.00
       C66          C  0.9999920  0.4999730  0.0000047    0.00000       Uiso       1.00
       H35          H  0.0085390  0.6200747  0.9583524    0.00000       Uiso       1.00
       H36          H  0.9301012  0.5416400  0.8799061    0.00000       Uiso       1.00
       C67          C  0.9364960  0.4776995  0.0394722    0.00000       Uiso       1.00
       C68          C  0.8598257  0.4179957  0.0056032    0.00000       Uiso       1.00
       C69          C  0.9077100  0.4407772  0.9926590    0.00000       Uiso       1.00
       C70          C  0.9468642  0.4708285  0.0106593    0.00000       Uiso       1.00
       H37          H  0.9900267  0.4685785  0.0648095    0.00000       Uiso       1.00
       H38          H  0.9840137  0.4476281  0.0015084    0.00000       Uiso       1.00
       H39          H  0.8308241  0.3954901  0.9915233    0.00000       Uiso       1.00
       C71          C  0.0637816  0.5055898  0.0819982    0.00000       Uiso       1.00
       C72          C  0.0257289  0.4926539  0.0592262    0.00000       Uiso       1.00
       C73          C  0.0806988  0.5393968  0.0222383    0.00000       Uiso       1.00
       C74          C  0.0346389  0.5106229  0.0291418    0.00000       Uiso       1.00
       H40          H  0.9651496  0.5014424  0.0523917    0.00000       Uiso       1.00
       H41          H  0.0432671  0.5647353  0.0314443    0.00000       Uiso       1.00
       H42          H  0.0561956  0.4915529  0.1045487    0.00000       Uiso       1.00
       C75          C  0.0525379  0.4943554  0.9180077    0.00000       Uiso       1.00
       C76          C  0.0403579  0.5072906  0.9407797    0.00000       Uiso       1.00
       C77          C  0.0018497  0.4605492  0.9777674    0.00000       Uiso       1.00
       C78          C  0.0133338  0.4893225  0.9708653    0.00000       Uiso       1.00
       H43          H  0.9621623  0.4984858  0.9476241    0.00000       Uiso       1.00
       H44          H  0.9137093  0.4352540  0.9685249    0.00000       Uiso       1.00
       H45          H  0.0730225  0.5083966  0.8954580    0.00000       Uiso       1.00
       C79          C  0.9809845  0.5222226  0.9605620    0.00000       Uiso       1.00
       C80          C  0.0238074  0.5819606  0.9943964    0.00000       Uiso       1.00
       C81          C  0.0261426  0.5591846  0.0073367    0.00000       Uiso       1.00
       C82          C  0.0051433  0.5291134  0.9893541    0.00000       Uiso       1.00
       H46          H  0.0528046  0.5313637  0.9351953    0.00000       Uiso       1.00
       H47          H  0.0887038  0.5523253  0.9985023    0.00000       Uiso       1.00
       H48          H  0.0398657  0.6044897  0.0084530    0.00000       Uiso       1.00
       C83          C  0.8030497  0.8856578  0.0826785    0.00000       Uiso       1.00
       C84          C  0.8032439  0.8986969  0.0525018    0.00000       Uiso       1.00
       C85          C  0.8406439  0.9223224  0.0337272    0.00000       Uiso       1.00
       C86          C  0.8462638  0.8986946  0.0955224    0.00000       Uiso       1.00
       C87          C  0.8887686  0.9251484  0.0748697    0.00000       Uiso       1.00
       C88          C  0.8831937  0.9354357  0.0441012    0.00000       Uiso       1.00
       H49          H  0.0806713  0.0701292  0.0944933    0.00000       Uiso       1.00
       H50          H  0.8467759  0.8884129  0.1201479    0.00000       Uiso       1.00
       H51          H  0.7683385  0.8884174  0.0417088    0.00000       Uiso       1.00
       C89          C  0.0316743  0.1142884  0.9174253    0.00000       Uiso       1.00
       C90          C  0.0057925  0.1012493  0.9476029    0.00000       Uiso       1.00
       C91          C  0.0000162  0.0748094  0.9636598    0.00000       Uiso       1.00
       C92          C  0.0488140  0.1012517  0.9045792    0.00000       Uiso       1.00
       C93          C  0.0440303  0.0776644  0.9183740    0.00000       Uiso       1.00
       C94          C  0.0205500  0.0645542  0.9478179    0.00000       Uiso       1.00
       H52          H  0.8354400  0.9298738  0.0106069    0.00000       Uiso       1.00
       H53          H  0.0698876  0.1115333  0.8799530    0.00000       Uiso       1.00
       H54          H  0.9914467  0.1115289  0.9583976    0.00000       Uiso       1.00
       C95          C  0.1969307  0.1142791  0.0826854    0.00000       Uiso       1.00
       C96          C  0.1967376  0.1012433  0.0525063    0.00000       Uiso       1.00
       C97          C  0.1496332  0.0748036  0.0364470    0.00000       Uiso       1.00
       C98          C  0.1537161  0.1012409  0.0955300    0.00000       Uiso       1.00
       C99          C  0.1113276  0.0776578  0.0817313    0.00000       Uiso       1.00
      C100          C  0.1085884  0.0645483  0.0522874    0.00000       Uiso       1.00
       H55          H  0.0242896  0.9298365  0.9895105    0.00000       Uiso       1.00
       H56          H  0.1532029  0.1115197  0.1201573    0.00000       Uiso       1.00
       H57          H  0.2316436  0.1115241  0.0417127    0.00000       Uiso       1.00
      C101          C  0.9683130  0.8856671  0.9174068    0.00000       Uiso       1.00
      C102          C  0.9941937  0.8987029  0.9475850    0.00000       Uiso       1.00
      C103          C  0.0040018  0.9222996  0.9663803    0.00000       Uiso       1.00
      C104          C  0.9511740  0.8987053  0.9045643    0.00000       Uiso       1.00
      C105          C  0.9615629  0.9251499  0.9252260    0.00000       Uiso       1.00
      C106          C  0.9876751  0.9354138  0.9560094    0.00000       Uiso       1.00
       H58          H  0.0596251  0.0701329  0.9056122    0.00000       Uiso       1.00
      C107          C  0.9999910  0.9999732  0.0000492    0.00000       Uiso       1.00
       H59          H  0.9301013  0.8884264  0.8799377    0.00000       Uiso       1.00
       H60          H  0.0085390  0.8884220  0.9583768    0.00000       Uiso       1.00
      C108          C  0.9193007  0.9587480  0.0223204    0.00000       Uiso       1.00
      C109          C  0.9361994  0.9417795  0.0820261    0.00000       Uiso       1.00
      C110          C  0.9742470  0.9668840  0.0592455    0.00000       Uiso       1.00
      C111          C  0.9653518  0.9759880  0.0291932    0.00000       Uiso       1.00
       H61          H  0.9566122  0.0213987  0.0314447    0.00000       Uiso       1.00
       H62          H  0.0348488  0.0363372  0.0523981    0.00000       Uiso       1.00
       H63          H  0.9437817  0.9352828  0.1045325    0.00000       Uiso       1.00
      C112          C  0.9761683  0.0581435  0.9944336    0.00000       Uiso       1.00
      C113          C  0.9738234  0.0330268  0.0073693    0.00000       Uiso       1.00
      C114          C  0.0190419  0.0412577  0.9606258    0.00000       Uiso       1.00
      C115          C  0.9948505  0.0239698  0.9893995    0.00000       Uiso       1.00
       H64          H  0.9112937  0.9636598  0.9985765    0.00000       Uiso       1.00
       H65          H  0.9470696  0.9784882  0.9352826    0.00000       Uiso       1.00
       H66          H  0.9600675  0.0645929  0.0084712    0.00000       Uiso       1.00
      C116          C  0.1401487  0.0581394  0.0056720    0.00000       Uiso       1.00
      C117          C  0.0922634  0.0330241  0.9927343    0.00000       Uiso       1.00
      C118          C  0.0635050  0.0412533  0.0394772    0.00000       Uiso       1.00
      C119          C  0.0531207  0.0239660  0.0107020    0.00000       Uiso       1.00
       H67          H  0.0160304  0.9636325  0.0015355    0.00000       Uiso       1.00
       H68          H  0.0099031  0.9784070  0.0647700    0.00000       Uiso       1.00
       H69          H  0.1691427  0.0645844  0.9916310    0.00000       Uiso       1.00
      C120          C  0.9981797  0.9587188  0.9777973    0.00000       Uiso       1.00
      C121          C  0.9474350  0.9418055  0.9180554    0.00000       Uiso       1.00
      C122          C  0.9596034  0.9669150  0.9408333    0.00000       Uiso       1.00
      C123          C  0.9866551  0.9759858  0.9709066    0.00000       Uiso       1.00
       H70          H  0.0862236  0.0213992  0.9686598    0.00000       Uiso       1.00
       H71          H  0.0378554  0.0363358  0.9476969    0.00000       Uiso       1.00
       H72          H  0.9269096  0.9353355  0.8955249    0.00000       Uiso       1.00
      C124          C  0.7473537  0.6116071  0.6857187    0.00000       Uiso       1.00
      C125          C  0.7739268  0.6117886  0.7092922    0.00000       Uiso       1.00
      C126          C  0.7776392  0.5886960  0.7071716    0.00000       Uiso       1.00
      C127          C  0.8024068  0.5881613  0.7319658    0.00000       Uiso       1.00
      C128          C  0.8217853  0.6094736  0.7605276    0.00000       Uiso       1.00
      C129          C  0.8169904  0.6322023  0.7624085    0.00000       Uiso       1.00
      C130          C  0.7964322  0.6354723  0.7361106    0.00000       Uiso       1.00
        O1          O  0.7216911  0.5893108  0.6587958    0.00000       Uiso       1.00
       H73          H  0.7612414  0.5710462  0.6861373    0.00000       Uiso       1.00
       H74          H  0.8055965  0.5706319  0.7285604    0.00000       Uiso       1.00
       H75          H  0.8265571  0.6459814  0.7854240    0.00000       Uiso       1.00
      C131          C  0.9260147  0.8143114  0.8642475    0.00000       Uiso       1.00
      C132          C  0.9026484  0.7907490  0.8378435    0.00000       Uiso       1.00
      C133          C  0.8816504  0.7928534  0.8110437    0.00000       Uiso       1.00
      C134          C  0.8563139  0.7680521  0.7857477    0.00000       Uiso       1.00
      C135          C  0.8490707  0.7394940  0.7876860    0.00000       Uiso       1.00
      C136          C  0.8699665  0.7376407  0.8151981    0.00000       Uiso       1.00
      C137          C  0.8995453  0.7639477  0.8390159    0.00000       Uiso       1.00
        O2          O  0.9305769  0.8412035  0.8676339    0.00000       Uiso       1.00
       H76          H  0.8849971  0.8138689  0.8097962    0.00000       Uiso       1.00
       H77          H  0.8421677  0.7714472  0.7650367    0.00000       Uiso       1.00
       H78          H  0.8607523  0.7146383  0.8194245    0.00000       Uiso       1.00
      C138          C  0.9500675  0.6357329  0.8883377    0.00000       Uiso       1.00
      C139          C  0.9529340  0.6621450  0.8881266    0.00000       Uiso       1.00
      C140          C  0.9818909  0.6889616  0.9112030    0.00000       Uiso       1.00
      C141          C  0.9824371  0.7142839  0.9117221    0.00000       Uiso       1.00
      C142          C  0.9519477  0.7123560  0.8904080    0.00000       Uiso       1.00
      C143          C  0.9225288  0.6848264  0.8676807    0.00000       Uiso       1.00
      C144          C  0.9249510  0.6609718  0.8644359    0.00000       Uiso       1.00
        O3          O  0.9736189  0.6323698  0.9106420    0.00000       Uiso       1.00
       H79          H  0.0041520  0.6901923  0.9288617    0.00000       Uiso       1.00
       H80          H  0.0065704  0.7350050  0.9292499    0.00000       Uiso       1.00
       H81          H  0.8953141  0.6806220  0.8538915    0.00000       Uiso       1.00
      C145          C  0.9206633  0.6089309  0.8665168    0.00000       Uiso       1.00
      C146          C  0.8943395  0.6076873  0.8415822    0.00000       Uiso       1.00
      C147          C  0.8652008  0.5806175  0.8187920    0.00000       Uiso       1.00
      C148          C  0.8405462  0.5804648  0.7931999    0.00000       Uiso       1.00
      C149          C  0.8466278  0.6083419  0.7885897    0.00000       Uiso       1.00
      C150          C  0.8770325  0.6356988  0.8113864    0.00000       Uiso       1.00
      C151          C  0.8981964  0.6348021  0.8393587    0.00000       Uiso       1.00
        O4          O  0.9215698  0.5848386  0.8717458    0.00000       Uiso       1.00
       H82          H  0.8614823  0.5594792  0.8209952    0.00000       Uiso       1.00
       H83          H  0.8171623  0.5584222  0.7770649    0.00000       Uiso       1.00
       H84          H  0.8866111  0.6587223  0.8062736    0.00000       Uiso       1.00
      C152          C  0.9453045  0.8117410  0.8910236    0.00000       Uiso       1.00
      C153          C  0.9451949  0.7866786  0.8922472    0.00000       Uiso       1.00
      C154          C  0.9660023  0.7846472  0.9192807    0.00000       Uiso       1.00
      C155          C  0.9671138  0.7601575  0.9194140    0.00000       Uiso       1.00
      C156          C  0.9498531  0.7383273  0.8915545    0.00000       Uiso       1.00
      C157          C  0.9300249  0.7413425  0.8642325    0.00000       Uiso       1.00
      C158          C  0.9241045  0.7633965  0.8651515    0.00000       Uiso       1.00
        O5          O  0.9650844  0.8367431  0.9151132    0.00000       Uiso       1.00
       H85          H  0.9812526  0.8020787  0.9404149    0.00000       Uiso       1.00
       H86          H  0.9819725  0.7588496  0.9414367    0.00000       Uiso       1.00
       H87          H  0.9216498  0.7278897  0.8412052    0.00000       Uiso       1.00
      C159          C  0.7424375  0.6334673  0.6882961    0.00000       Uiso       1.00
      C160          C  0.7661392  0.6584009  0.7133749    0.00000       Uiso       1.00
      C161          C  0.7619513  0.6812415  0.7153977    0.00000       Uiso       1.00
      C162          C  0.7874190  0.7068459  0.7398840    0.00000       Uiso       1.00
      C163          C  0.8198317  0.7114079  0.7617317    0.00000       Uiso       1.00
      C164          C  0.8242884  0.6885498  0.7587345    0.00000       Uiso       1.00
      C165          C  0.7954040  0.6605803  0.7366704    0.00000       Uiso       1.00
        O6          O  0.7131720  0.6282758  0.6632725    0.00000       Uiso       1.00
       H88          H  0.7386469  0.6790605  0.6979516    0.00000       Uiso       1.00
       H89          H  0.7815790  0.7230220  0.7411713    0.00000       Uiso       1.00
       H90          H  0.8523790  0.6936182  0.7722046    0.00000       Uiso       1.00
        B1          B  0.7001474  0.6001465  0.6447188    0.00000       Uiso       1.00
        B2          B  0.9554664  0.8552753  0.9000221    0.00000       Uiso       1.00
        B3          B  0.9552654  0.5999654  0.8998527    0.00000       Uiso       1.00
      C166          C  0.2526431  0.3883743  0.6857158    0.00000       Uiso       1.00
      C167          C  0.2260691  0.3881901  0.7092912    0.00000       Uiso       1.00
      C168          C  0.2223568  0.4112830  0.7071751    0.00000       Uiso       1.00
      C169          C  0.1975882  0.4118149  0.7319712    0.00000       Uiso       1.00
      C170          C  0.1782085  0.3904994  0.7605304    0.00000       Uiso       1.00
      C171          C  0.1830033  0.3677705  0.7624068    0.00000       Uiso       1.00
      C172          C  0.2035626  0.3645034  0.7361069    0.00000       Uiso       1.00
        O7          O  0.2783069  0.4106736  0.6587953    0.00000       Uiso       1.00
       H91          H  0.2387554  0.4289351  0.6861429    0.00000       Uiso       1.00
       H92          H  0.1943985  0.4293447  0.7285691    0.00000       Uiso       1.00
       H93          H  0.1734356  0.3539888  0.7854205    0.00000       Uiso       1.00
      C173          C  0.0739748  0.1856501  0.8642204    0.00000       Uiso       1.00
      C174          C  0.0973422  0.2092155  0.8378191    0.00000       Uiso       1.00
      C175          C  0.1183412  0.2071140  0.8110173    0.00000       Uiso       1.00
      C176          C  0.1436788  0.2319181  0.7857240    0.00000       Uiso       1.00
      C177          C  0.1509219  0.2604760  0.7876671    0.00000       Uiso       1.00
      C178          C  0.1300250  0.2623262  0.8151810    0.00000       Uiso       1.00
      C179          C  0.1004453  0.2360166  0.8389961    0.00000       Uiso       1.00
        O8          O  0.0694125  0.1587576  0.8676022    0.00000       Uiso       1.00
       H94          H  0.1149946  0.1860986  0.8097662    0.00000       Uiso       1.00
       H95          H  0.1578258  0.2285253  0.7650115    0.00000       Uiso       1.00
       H96          H  0.1392391  0.2853282  0.8194109    0.00000       Uiso       1.00
      C180          C  0.0499210  0.3642258  0.8883448    0.00000       Uiso       1.00
      C181          C  0.0470545  0.3378138  0.8881289    0.00000       Uiso       1.00
      C182          C  0.0180968  0.3109947  0.9112028    0.00000       Uiso       1.00
      C183          C  0.0175504  0.2856722  0.9117171    0.00000       Uiso       1.00
      C184          C  0.0480407  0.2876025  0.8904012    0.00000       Uiso       1.00
      C185          C  0.0774605  0.3151347  0.8676769    0.00000       Uiso       1.00
      C186          C  0.0750386  0.3389897  0.8644366    0.00000       Uiso       1.00
        O9          O  0.0263687  0.3675865  0.9106513    0.00000       Uiso       1.00
       H97          H  0.9958348  0.3097619  0.9288628    0.00000       Uiso       1.00
       H98          H  0.9934164  0.2649492  0.9292428    0.00000       Uiso       1.00
       H99          H  0.1046758  0.3193406  0.8538866    0.00000       Uiso       1.00
      C187          C  0.0793261  0.3910303  0.8665267    0.00000       Uiso       1.00
      C188          C  0.1056509  0.3922766  0.8415905    0.00000       Uiso       1.00
      C189          C  0.1347906  0.4193490  0.8188031    0.00000       Uiso       1.00
      C190          C  0.1594462  0.4195046  0.7932093    0.00000       Uiso       1.00
      C191          C  0.1533649  0.3916281  0.7885944    0.00000       Uiso       1.00
      C192          C  0.1229591  0.3642686  0.8113883    0.00000       Uiso       1.00
      C193          C  0.1017941  0.3651621  0.8393623    0.00000       Uiso       1.00
       O10          O  0.0784194  0.4151220  0.8717601    0.00000       Uiso       1.00
      H100          H  0.1385090  0.4404871  0.8210099    0.00000       Uiso       1.00
      H101          H  0.1828308  0.4415490  0.7770767    0.00000       Uiso       1.00
      H102          H  0.1133808  0.3412456  0.8062721    0.00000       Uiso       1.00
      C194          C  0.0546839  0.1882174  0.8909982    0.00000       Uiso       1.00
      C195          C  0.0547935  0.2132798  0.8922265    0.00000       Uiso       1.00
      C196          C  0.0339849  0.2153082  0.9192618    0.00000       Uiso       1.00
      C197          C  0.0328735  0.2397978  0.9193996    0.00000       Uiso       1.00
      C198          C  0.0501353  0.2616312  0.8915428    0.00000       Uiso       1.00
      C199          C  0.0699646  0.2586190  0.8642189    0.00000       Uiso       1.00
      C200          C  0.0758850  0.2365649  0.8651334    0.00000       Uiso       1.00
       O11          O  0.0349031  0.1632128  0.9150848    0.00000       Uiso       1.00
      H103          H  0.0187338  0.1978742  0.9403939    0.00000       Uiso       1.00
      H104          H  0.0180139  0.2411032  0.9414236    0.00000       Uiso       1.00
      H105          H  0.0783406  0.2720744  0.8411936    0.00000       Uiso       1.00
      C201          C  0.2575592  0.3665138  0.6882889    0.00000       Uiso       1.00
      C202          C  0.2338564  0.3415774  0.7133648    0.00000       Uiso       1.00
      C203          C  0.2380444  0.3187366  0.7153832    0.00000       Uiso       1.00
      C204          C  0.2125756  0.2931294  0.7398667    0.00000       Uiso       1.00
      C205          C  0.1801620  0.2885650  0.7617158    0.00000       Uiso       1.00
      C206          C  0.1757054  0.3114235  0.7587231    0.00000       Uiso       1.00
      C207          C  0.2045908  0.3393954  0.7366621    0.00000       Uiso       1.00
       O12          O  0.2868257  0.3717080  0.6632642    0.00000       Uiso       1.00
      H106          H  0.2613494  0.3209195  0.6979359    0.00000       Uiso       1.00
      H107          H  0.2184156  0.2769532  0.7411506    0.00000       Uiso       1.00
      H108          H  0.1476143  0.3063536  0.7721943    0.00000       Uiso       1.00
        B4          B  0.2998511  0.3998395  0.6447148    0.00000       Uiso       1.00
        B5          B  0.0445217  0.1446821  0.8999895    0.00000       Uiso       1.00
        B6          B  0.0447227  0.3999921  0.8998666    0.00000       Uiso       1.00
      C208          C  0.4758836  0.6116278  0.3143009    0.00000       Uiso       1.00
      C209          C  0.4496763  0.6118120  0.2907273    0.00000       Uiso       1.00
      C210          C  0.3997784  0.5887191  0.2928452    0.00000       Uiso       1.00
      C211          C  0.3739442  0.5881872  0.2680510    0.00000       Uiso       1.00
      C212          C  0.3971936  0.6095027  0.2394916    0.00000       Uiso       1.00
      C213          C  0.4474459  0.6322316  0.2376133    0.00000       Uiso       1.00
      C214          C  0.4745412  0.6354986  0.2639116    0.00000       Uiso       1.00
       O13          O  0.4569506  0.5893285  0.3412211    0.00000       Uiso       1.00
      H109          H  0.3808742  0.5710670  0.3138776    0.00000       Uiso       1.00
      H110          H  0.3356953  0.5706574  0.2714545    0.00000       Uiso       1.00
      H111          H  0.4654401  0.6460133  0.2145994    0.00000       Uiso       1.00
      C215          C  0.7026511  0.8143519  0.1357946    0.00000       Uiso       1.00
      C216          C  0.6788898  0.7907866  0.1621959    0.00000       Uiso       1.00
      C217          C  0.7040935  0.7928880  0.1889960    0.00000       Uiso       1.00
      C218          C  0.6798247  0.7680840  0.2142893    0.00000       Uiso       1.00
      C219          C  0.6299520  0.7395261  0.2123477    0.00000       Uiso       1.00
      C220          C  0.6053527  0.7376759  0.1848354    0.00000       Uiso       1.00
      C221          C  0.6283904  0.7639855  0.1610205    0.00000       Uiso       1.00
       O14          O  0.7518736  0.8412445  0.1324112    0.00000       Uiso       1.00
      H112          H  0.7427778  0.8139035  0.1902459    0.00000       Uiso       1.00
      H113          H  0.7007588  0.7714767  0.2350006    0.00000       Uiso       1.00
      H114          H  0.5685624  0.7146739  0.1806065    0.00000       Uiso       1.00
      C222          C  0.3214442  0.6357763  0.1116845    0.00000       Uiso       1.00
      C223          C  0.3714018  0.6621884  0.1118986    0.00000       Uiso       1.00
      C224          C  0.3960807  0.6890075  0.0888250    0.00000       Uiso       1.00
      C225          C  0.4461791  0.7143298  0.0883089    0.00000       Uiso       1.00
      C226          C  0.4728103  0.7123995  0.1096228    0.00000       Uiso       1.00
      C227          C  0.4471675  0.6848674  0.1323470    0.00000       Uiso       1.00
      C228          C  0.3970357  0.6610124  0.1355890    0.00000       Uiso       1.00
       O15          O  0.2911690  0.6324157  0.0893798    0.00000       Uiso       1.00
      H115          H  0.3762833  0.6902401  0.0711665    0.00000       Uiso       1.00
      H116          H  0.4634903  0.7350529  0.0707834    0.00000       Uiso       1.00
      H117          H  0.4659719  0.6806615  0.1461356    0.00000       Uiso       1.00
      C229          C  0.2972418  0.6089718  0.1335024    0.00000       Uiso       1.00
      C230          C  0.3210757  0.6077254  0.1584368    0.00000       Uiso       1.00
      C231          C  0.2960724  0.5806531  0.1812241    0.00000       Uiso       1.00
      C232          C  0.3204186  0.5804975  0.2068161    0.00000       Uiso       1.00
      C233          C  0.3700906  0.6083741  0.2114295    0.00000       Uiso       1.00
      C234          C  0.3944022  0.6357335  0.1886358    0.00000       Uiso       1.00
      C235          C  0.3714481  0.6348400  0.1606633    0.00000       Uiso       1.00
       O16          O  0.2481514  0.5848802  0.1282707    0.00000       Uiso       1.00
      H118          H  0.2575143  0.5595150  0.1790184    0.00000       Uiso       1.00
      H119          H  0.2997155  0.5584531  0.2229486    0.00000       Uiso       1.00
      H120          H  0.4308702  0.6587565  0.1937511    0.00000       Uiso       1.00
      C236          C  0.6782237  0.8117847  0.1090182    0.00000       Uiso       1.00
      C237          C  0.6282085  0.7867223  0.1077918    0.00000       Uiso       1.00
      C238          C  0.6033413  0.7846940  0.0807581    0.00000       Uiso       1.00
      C239          C  0.5532506  0.7602043  0.0806221    0.00000       Uiso       1.00
      C240          C  0.5268477  0.7383710  0.1084792    0.00000       Uiso       1.00
      C241          C  0.5527033  0.7413831  0.1358015    0.00000       Uiso       1.00
      C242          C  0.6027318  0.7634372  0.1348850    0.00000       Uiso       1.00
       O17          O  0.7084505  0.8367893  0.0849314    0.00000       Uiso       1.00
      H121          H  0.6229566  0.8021279  0.0596258    0.00000       Uiso       1.00
      H122          H  0.5357785  0.7588989  0.0585992    0.00000       Uiso       1.00
      H123          H  0.5341700  0.7279277  0.1588272    0.00000       Uiso       1.00
      C243          C  0.5245206  0.6334884  0.3117258    0.00000       Uiso       1.00
      C244          C  0.5506888  0.6584247  0.2866499    0.00000       Uiso       1.00
      C245          C  0.6005582  0.6812655  0.2846296    0.00000       Uiso       1.00
      C246          C  0.6263021  0.7068727  0.2601461    0.00000       Uiso       1.00
      C247          C  0.6030158  0.7114370  0.2382990    0.00000       Uiso       1.00
      C248          C  0.5528424  0.6885786  0.2412936    0.00000       Uiso       1.00
      C249          C  0.5257854  0.6606066  0.2633545    0.00000       Uiso       1.00
       O18          O  0.5434003  0.6282941  0.3367488    0.00000       Uiso       1.00
      H124          H  0.6194988  0.6790826  0.3020754    0.00000       Uiso       1.00
      H125          H  0.6644945  0.7230489  0.2588606    0.00000       Uiso       1.00
      H126          H  0.5348902  0.6936485  0.2278240    0.00000       Uiso       1.00
        B7          B  0.5001641  0.6001626  0.3552993    0.00000       Uiso       1.00
        B8          B  0.7551315  0.8553200  0.1000246    0.00000       Uiso       1.00
        B9          B  0.2447124  0.6000100  0.1001655    0.00000       Uiso       1.00
      C250          C  0.5241285  0.3883949  0.3142787    0.00000       Uiso       1.00
      C251          C  0.5503368  0.3882134  0.2907033    0.00000       Uiso       1.00
      C252          C  0.6002346  0.4113060  0.2928219    0.00000       Uiso       1.00
      C253          C  0.6260698  0.4118407  0.2680259    0.00000       Uiso       1.00
      C254          C  0.6028216  0.3905284  0.2394643    0.00000       Uiso       1.00
      C255          C  0.5525693  0.3677997  0.2375853    0.00000       Uiso       1.00
      C256          C  0.5254729  0.3645297  0.2638849    0.00000       Uiso       1.00
       O19          O  0.5430604  0.4106913  0.3412016    0.00000       Uiso       1.00
      H127          H  0.6191379  0.4289558  0.3138561    0.00000       Uiso       1.00
      H128          H  0.6643186  0.4293701  0.2714299    0.00000       Uiso       1.00
      H129          H  0.5345761  0.3540206  0.2145701    0.00000       Uiso       1.00
      C257          C  0.2973683  0.1856907  0.1357515    0.00000       Uiso       1.00
      C258          C  0.3211286  0.2092531  0.1621554    0.00000       Uiso       1.00
      C259          C  0.2959237  0.2071487  0.1889569    0.00000       Uiso       1.00
      C260          C  0.3201916  0.2319499  0.2142529    0.00000       Uiso       1.00
      C261          C  0.3700644  0.2605080  0.2123131    0.00000       Uiso       1.00
      C262          C  0.3946647  0.2623612  0.1847994    0.00000       Uiso       1.00
      C263          C  0.3716280  0.2360543  0.1609814    0.00000       Uiso       1.00
       O20          O  0.2481459  0.1587986  0.1323666    0.00000       Uiso       1.00
      H130          H  0.2572394  0.1861331  0.1902057    0.00000       Uiso       1.00
      H131          H  0.2992566  0.2285548  0.2349651    0.00000       Uiso       1.00
      H132          H  0.4314552  0.2853638  0.1805721    0.00000       Uiso       1.00
      C264          C  0.6785762  0.3642690  0.1116470    0.00000       Uiso       1.00
      C265          C  0.6286186  0.3378570  0.1118598    0.00000       Uiso       1.00
      C266          C  0.6039407  0.3110404  0.0887831    0.00000       Uiso       1.00
      C267          C  0.5538422  0.2857181  0.0882659    0.00000       Uiso       1.00
      C268          C  0.5272102  0.2876460  0.1095820    0.00000       Uiso       1.00
      C269          C  0.5528522  0.3151756  0.1323094    0.00000       Uiso       1.00
      C270          C  0.6029837  0.3390302  0.1355523    0.00000       Uiso       1.00
       O21          O  0.7088524  0.3676322  0.0893408    0.00000       Uiso       1.00
      H133          H  0.6237388  0.3098097  0.0711229    0.00000       Uiso       1.00
      H134          H  0.5365318  0.2649970  0.0707378    0.00000       Uiso       1.00
      H135          H  0.5340471  0.3193800  0.1461001    0.00000       Uiso       1.00
      C271          C  0.7027777  0.3910711  0.1334681    0.00000       Uiso       1.00
      C272          C  0.6789428  0.3923147  0.1584044    0.00000       Uiso       1.00
      C273          C  0.7039453  0.4193845  0.1811948    0.00000       Uiso       1.00
      C274          C  0.6795979  0.4195372  0.2067886    0.00000       Uiso       1.00
      C275          C  0.6299257  0.3916602  0.2114004    0.00000       Uiso       1.00
      C276          C  0.6056150  0.3643032  0.1886035    0.00000       Uiso       1.00
      C277          C  0.6285703  0.3651999  0.1606295    0.00000       Uiso       1.00
       O22          O  0.7518683  0.4151633  0.1282373    0.00000       Uiso       1.00
      H136          H  0.7425033  0.4405228  0.1789903    0.00000       Uiso       1.00
      H137          H  0.7003004  0.4415798  0.2229237    0.00000       Uiso       1.00
      H138          H  0.5691469  0.3412797  0.1937171    0.00000       Uiso       1.00
      C278          C  0.3217968  0.1882610  0.1089738    0.00000       Uiso       1.00
      C279          C  0.3718121  0.2133235  0.1077484    0.00000       Uiso       1.00
      C280          C  0.3966804  0.2153549  0.0807134    0.00000       Uiso       1.00
      C281          C  0.4467711  0.2398445  0.0805783    0.00000       Uiso       1.00
      C282          C  0.4731729  0.2616748  0.1084375    0.00000       Uiso       1.00
      C283          C  0.4473161  0.2586595  0.1357611    0.00000       Uiso       1.00
      C284          C  0.3972877  0.2366056  0.1348441    0.00000       Uiso       1.00
       O23          O  0.2915710  0.1632590  0.0848846    0.00000       Uiso       1.00
      H139          H  0.3770659  0.1979233  0.0595793    0.00000       Uiso       1.00
      H140          H  0.4642441  0.2411524  0.0585544    0.00000       Uiso       1.00
      H141          H  0.4658484  0.2721124  0.1587880    0.00000       Uiso       1.00
      C285          C  0.4754917  0.3665347  0.3117031    0.00000       Uiso       1.00
      C286          C  0.4493245  0.3416011  0.2866244    0.00000       Uiso       1.00
      C287          C  0.3994552  0.3187606  0.2846035    0.00000       Uiso       1.00
      C288          C  0.3737122  0.2931561  0.2601171    0.00000       Uiso       1.00
      C289          C  0.3969995  0.2885941  0.2382676    0.00000       Uiso       1.00
      C290          C  0.4471727  0.3114523  0.2412628    0.00000       Uiso       1.00
      C291          C  0.4742288  0.3394218  0.2633269    0.00000       Uiso       1.00
       O24          O  0.4566109  0.3717262  0.3367284    0.00000       Uiso       1.00
      H142          H  0.3805138  0.3209414  0.3020510    0.00000       Uiso       1.00
      H143          H  0.3355199  0.2769800  0.2588314    0.00000       Uiso       1.00
      H144          H  0.4651255  0.3063839  0.2277910    0.00000       Uiso       1.00
       B10          B  0.4998463  0.3998556  0.3552809    0.00000       Uiso       1.00
       B11          B  0.2448894  0.1447267  0.0999777    0.00000       Uiso       1.00
       B12          B  0.7553084  0.4000366  0.1001291    0.00000       Uiso       1.00
