data_109
_audit_creation_date              0000-00-00
_audit_creation_method            'LanYouShi'
_symmetry_space_group_name_H-M    'P1'
_cell_length_a                    39.6036987
_cell_length_b                    39.6036987
_cell_length_c                    39.6036987
_cell_angle_alpha                 90.0000000
_cell_angle_beta                  90.0000000
_cell_angle_gamma                 90.0000000
loop_
_atom_site_label
_atom_site_type_symbol
_atom_site_fract_x
_atom_site_fract_y
_atom_site_fract_z
_atom_site_U_iso_or_equiv
_atom_site_adp_type
_atom_site_occupancy
        C1          C  0.3856887  0.4173700  0.5826301    0.00000       Uiso       1.00
        C2          C  0.3987261  0.4045261  0.5524533    0.00000       Uiso       1.00
        C3          C  0.4223505  0.4183013  0.5336785    0.00000       Uiso       1.00
        C4          C  0.3987261  0.4475468  0.5954739    0.00000       Uiso       1.00
        C5          C  0.4251788  0.4635985  0.5748211    0.00000       Uiso       1.00
        C6          C  0.4354645  0.4477373  0.5440524    0.00000       Uiso       1.00
        H1          H  0.3884459  0.4583397  0.6200994    0.00000       Uiso       1.00
        H2          H  0.3884459  0.3799006  0.5416604    0.00000       Uiso       1.00
        C7          C  0.6143098  0.4173699  0.4173701    0.00000       Uiso       1.00
        C8          C  0.6012723  0.4045261  0.4475470    0.00000       Uiso       1.00
        C9          C  0.5748333  0.4251892  0.4636056    0.00000       Uiso       1.00
       C10          C  0.6012723  0.4475468  0.4045264    0.00000       Uiso       1.00
       C11          C  0.5776858  0.4663500  0.4183226    0.00000       Uiso       1.00
       C12          C  0.5645773  0.4559788  0.4477658    0.00000       Uiso       1.00
        H3          H  0.6115526  0.4583397  0.3799008    0.00000       Uiso       1.00
        H4          H  0.6115526  0.3799006  0.4583399    0.00000       Uiso       1.00
       C13          C  0.6143096  0.5826299  0.5826300    0.00000       Uiso       1.00
       C14          C  0.6012722  0.5954736  0.5524533    0.00000       Uiso       1.00
       C15          C  0.5748315  0.5748094  0.5363952    0.00000       Uiso       1.00
       C16          C  0.6012722  0.5524530  0.5954739    0.00000       Uiso       1.00
       C17          C  0.5776883  0.5336481  0.5816764    0.00000       Uiso       1.00
       C18          C  0.5645771  0.5440195  0.5522345    0.00000       Uiso       1.00
        H5          H  0.6115524  0.5416601  0.6200994    0.00000       Uiso       1.00
        H6          H  0.6115524  0.6200991  0.5416603    0.00000       Uiso       1.00
       C19          C  0.3856887  0.5826298  0.4173703    0.00000       Uiso       1.00
       C20          C  0.3987261  0.5954736  0.4475470    0.00000       Uiso       1.00
       C21          C  0.4223240  0.5816840  0.4663399    0.00000       Uiso       1.00
       C22          C  0.3987262  0.5524530  0.4045264    0.00000       Uiso       1.00
       C23          C  0.4251719  0.5363967  0.4251853    0.00000       Uiso       1.00
       C24          C  0.4354376  0.5522438  0.4559677    0.00000       Uiso       1.00
       C25          C  0.4999995  0.4999987  0.5000003    0.00000       Uiso       1.00
        H7          H  0.3884459  0.5416600  0.3799009    0.00000       Uiso       1.00
        H8          H  0.3884459  0.6200991  0.4583400    0.00000       Uiso       1.00
       Cl1         Cl  0.4345680  0.3976623  0.4962658    0.00000       Uiso       1.00
       Cl2         Cl  0.4345210  0.6023142  0.5037640    0.00000       Uiso       1.00
       Cl3         Cl  0.5654987  0.5037688  0.3976768    0.00000       Uiso       1.00
       Cl4         Cl  0.5655085  0.4962276  0.6023233    0.00000       Uiso       1.00
       C26          C  0.4587756  0.4605329  0.5222716    0.00000       Uiso       1.00
       C27          C  0.4418103  0.4943980  0.5819772    0.00000       Uiso       1.00
       C28          C  0.4669135  0.5073418  0.5591966    0.00000       Uiso       1.00
       C29          C  0.4760158  0.4893438  0.5291442    0.00000       Uiso       1.00
        H9          H  0.5214264  0.4351937  0.5313911    0.00000       Uiso       1.00
       H10          H  0.5363661  0.4984909  0.5523452    0.00000       Uiso       1.00
       C30          C  0.5581691  0.4180065  0.4943790    0.00000       Uiso       1.00
       C31          C  0.5330532  0.4407778  0.5073162    0.00000       Uiso       1.00
       C32          C  0.5412815  0.4777667  0.4605753    0.00000       Uiso       1.00
       C33          C  0.5239952  0.4708625  0.4893488    0.00000       Uiso       1.00
       H11          H  0.4636859  0.4476150  0.4985280    0.00000       Uiso       1.00
       H12          H  0.4785109  0.4685647  0.4352363    0.00000       Uiso       1.00
       C34          C  0.5581656  0.5819902  0.5056225    0.00000       Uiso       1.00
       C35          C  0.5330496  0.5592207  0.4926861    0.00000       Uiso       1.00
       C36          C  0.5412815  0.5222315  0.5394253    0.00000       Uiso       1.00
       C37          C  0.5239925  0.5291355  0.5106524    0.00000       Uiso       1.00
       H13          H  0.4636588  0.5523785  0.5014904    0.00000       Uiso       1.00
       H14          H  0.4784369  0.5314745  0.5647210    0.00000       Uiso       1.00
       C38          C  0.4587438  0.5394426  0.4777530    0.00000       Uiso       1.00
       C39          C  0.4418271  0.5056133  0.4180130    0.00000       Uiso       1.00
       C40          C  0.4669380  0.4926715  0.4407883    0.00000       Uiso       1.00
       C41          C  0.4760104  0.5106512  0.4708605    0.00000       Uiso       1.00
       H15          H  0.5214233  0.5648066  0.4686132    0.00000       Uiso       1.00
       H16          H  0.5363588  0.5015026  0.4476481    0.00000       Uiso       1.00
       Cl5         Cl  0.4312483  0.5172900  0.6185743    0.00000       Uiso       1.00
       Cl6         Cl  0.4313049  0.4827610  0.3813798    0.00000       Uiso       1.00
       Cl7         Cl  0.5686560  0.3813428  0.5171986    0.00000       Uiso       1.00
       Cl8         Cl  0.5686430  0.6186523  0.4827958    0.00000       Uiso       1.00
       C42          C  0.9173693  0.1143105  0.4173702    0.00000       Uiso       1.00
       C43          C  0.9475462  0.1012731  0.4045264    0.00000       Uiso       1.00
       C44          C  0.9663210  0.0776487  0.4183015    0.00000       Uiso       1.00
       C45          C  0.9045255  0.1012731  0.4475470    0.00000       Uiso       1.00
       C46          C  0.9251784  0.0748204  0.4635987    0.00000       Uiso       1.00
       C47          C  0.9559470  0.0645347  0.4477376    0.00000       Uiso       1.00
       H17          H  0.8799000  0.1115533  0.4583400    0.00000       Uiso       1.00
       H18          H  0.9583391  0.1115533  0.3799009    0.00000       Uiso       1.00
       C48          C  0.0826292  0.8856892  0.4173702    0.00000       Uiso       1.00
       C49          C  0.0524524  0.8987266  0.4045264    0.00000       Uiso       1.00
       C50          C  0.0363938  0.9251656  0.4251895    0.00000       Uiso       1.00
       C51          C  0.0954730  0.8987266  0.4475470    0.00000       Uiso       1.00
       C52          C  0.0816768  0.9223132  0.4663502    0.00000       Uiso       1.00
       C53          C  0.0522335  0.9354218  0.4559790    0.00000       Uiso       1.00
       H19          H  0.1200985  0.8884464  0.4583399    0.00000       Uiso       1.00
       H20          H  0.0416594  0.8884464  0.3799008    0.00000       Uiso       1.00
       C54          C  0.9173691  0.8856894  0.5826301    0.00000       Uiso       1.00
       C55          C  0.9475458  0.8987268  0.5954739    0.00000       Uiso       1.00
       C56          C  0.9636039  0.9251673  0.5748097    0.00000       Uiso       1.00
       C57          C  0.9045252  0.8987268  0.5524533    0.00000       Uiso       1.00
       C58          C  0.9183227  0.9223107  0.5336484    0.00000       Uiso       1.00
       C59          C  0.9477645  0.9354219  0.5440197    0.00000       Uiso       1.00
       H21          H  0.8798997  0.8884466  0.5416603    0.00000       Uiso       1.00
       H22          H  0.9583387  0.8884466  0.6200994    0.00000       Uiso       1.00
       C60          C  0.0826294  0.1143105  0.5826301    0.00000       Uiso       1.00
       C61          C  0.0524526  0.1012731  0.5954739    0.00000       Uiso       1.00
       C62          C  0.0336598  0.0776752  0.5816843    0.00000       Uiso       1.00
       C63          C  0.0954732  0.1012731  0.5524533    0.00000       Uiso       1.00
       C64          C  0.0748144  0.0748273  0.5363970    0.00000       Uiso       1.00
       C65          C  0.0440320  0.0645616  0.5522441    0.00000       Uiso       1.00
       C66          C  0.9999987  0.9999995  0.4999990    0.00000       Uiso       1.00
       H23          H  0.1200988  0.1115533  0.5416604    0.00000       Uiso       1.00
       H24          H  0.0416597  0.1115533  0.6200994    0.00000       Uiso       1.00
       Cl9         Cl  0.0037339  0.0654312  0.3976626    0.00000       Uiso       1.00
      Cl10         Cl  0.9962354  0.0654782  0.6023145    0.00000       Uiso       1.00
      Cl11         Cl  0.1023225  0.9345003  0.5037690    0.00000       Uiso       1.00
      Cl12         Cl  0.8976758  0.9344904  0.4962278    0.00000       Uiso       1.00
       C67          C  0.9777278  0.0412237  0.4605332    0.00000       Uiso       1.00
       C68          C  0.9180221  0.0581889  0.4943983    0.00000       Uiso       1.00
       C69          C  0.9408029  0.0330856  0.5073421    0.00000       Uiso       1.00
       C70          C  0.9708552  0.0239834  0.4893440    0.00000       Uiso       1.00
       H25          H  0.9686079  0.9785725  0.4351940    0.00000       Uiso       1.00
       H26          H  0.9476538  0.9636329  0.4984912    0.00000       Uiso       1.00
       C71          C  0.0056204  0.9418299  0.4180067    0.00000       Uiso       1.00
       C72          C  0.9926829  0.9669458  0.4407781    0.00000       Uiso       1.00
       C73          C  0.0394240  0.9587176  0.4777670    0.00000       Uiso       1.00
       C74          C  0.0106505  0.9760038  0.4708628    0.00000       Uiso       1.00
       H27          H  0.0014717  0.0363133  0.4476152    0.00000       Uiso       1.00
       H28          H  0.0647634  0.0214883  0.4685649    0.00000       Uiso       1.00
       C75          C  0.9943765  0.9418333  0.5819905    0.00000       Uiso       1.00
       C76          C  0.0073133  0.9669494  0.5592210    0.00000       Uiso       1.00
       C77          C  0.9605737  0.9587175  0.5222317    0.00000       Uiso       1.00
       C78          C  0.9893466  0.9760064  0.5291358    0.00000       Uiso       1.00
       H29          H  0.9985090  0.0363404  0.5523788    0.00000       Uiso       1.00
       H30          H  0.9352784  0.0215623  0.5314747    0.00000       Uiso       1.00
       C79          C  0.0222467  0.0412554  0.5394429    0.00000       Uiso       1.00
       C80          C  0.0819867  0.0581720  0.5056136    0.00000       Uiso       1.00
       C81          C  0.0592114  0.0330613  0.4926718    0.00000       Uiso       1.00
       C82          C  0.0291392  0.0239887  0.5106515    0.00000       Uiso       1.00
       H31          H  0.0313861  0.9785756  0.5648069    0.00000       Uiso       1.00
       H32          H  0.0523513  0.9636402  0.5015029    0.00000       Uiso       1.00
      Cl13         Cl  0.8814251  0.0687508  0.5172903    0.00000       Uiso       1.00
      Cl14         Cl  0.1186199  0.0686943  0.4827613    0.00000       Uiso       1.00
      Cl15         Cl  0.9828005  0.9313430  0.3813430    0.00000       Uiso       1.00
      Cl16         Cl  0.0172036  0.9313560  0.6186525    0.00000       Uiso       1.00
       C83          C  0.0826294  0.5826299  0.1143108    0.00000       Uiso       1.00
       C84          C  0.0954732  0.5524530  0.1012733    0.00000       Uiso       1.00
       C85          C  0.0816981  0.5336782  0.0776490    0.00000       Uiso       1.00
       C86          C  0.0524526  0.5954736  0.1012733    0.00000       Uiso       1.00
       C87          C  0.0364009  0.5748208  0.0748206    0.00000       Uiso       1.00
       C88          C  0.0522620  0.5440522  0.0645350    0.00000       Uiso       1.00
       H33          H  0.0416596  0.6200991  0.1115535    0.00000       Uiso       1.00
       H34          H  0.1200987  0.5416601  0.1115536    0.00000       Uiso       1.00
       C89          C  0.0826292  0.4173700  0.8856894    0.00000       Uiso       1.00
       C90          C  0.0954730  0.4475468  0.8987268    0.00000       Uiso       1.00
       C91          C  0.0748099  0.4636054  0.9251659    0.00000       Uiso       1.00
       C92          C  0.0524524  0.4045262  0.8987268    0.00000       Uiso       1.00
       C93          C  0.0336492  0.4183224  0.9223135    0.00000       Uiso       1.00
       C94          C  0.0440203  0.4477656  0.9354219    0.00000       Uiso       1.00
       H35          H  0.0416595  0.3799007  0.8884466    0.00000       Uiso       1.00
       H36          H  0.1200985  0.4583398  0.8884466    0.00000       Uiso       1.00
       C95          C  0.9173691  0.5826299  0.8856896    0.00000       Uiso       1.00
       C96          C  0.9045252  0.5524530  0.8987271    0.00000       Uiso       1.00
       C97          C  0.9251894  0.5363951  0.9251676    0.00000       Uiso       1.00
       C98          C  0.9475459  0.5954737  0.8987271    0.00000       Uiso       1.00
       C99          C  0.9663508  0.5816762  0.9223109    0.00000       Uiso       1.00
      C100          C  0.9559794  0.5522344  0.9354221    0.00000       Uiso       1.00
       H37          H  0.9583388  0.6200992  0.8884468    0.00000       Uiso       1.00
       H38          H  0.8798997  0.5416601  0.8884468    0.00000       Uiso       1.00
      C101          C  0.9173693  0.4173700  0.1143107    0.00000       Uiso       1.00
      C102          C  0.9045255  0.4475468  0.1012733    0.00000       Uiso       1.00
      C103          C  0.9183150  0.4663396  0.0776755    0.00000       Uiso       1.00
      C104          C  0.9475461  0.4045262  0.1012733    0.00000       Uiso       1.00
      C105          C  0.9636024  0.4251850  0.0748276    0.00000       Uiso       1.00
      C106          C  0.9477553  0.4559674  0.0645618    0.00000       Uiso       1.00
      C107          C  0.0000004  0.5000001  0.9999997    0.00000       Uiso       1.00
       H39          H  0.9583390  0.3799006  0.1115535    0.00000       Uiso       1.00
       H40          H  0.8799000  0.4583397  0.1115535    0.00000       Uiso       1.00
      Cl17         Cl  0.1023371  0.4962656  0.0654315    0.00000       Uiso       1.00
      Cl18         Cl  0.8976849  0.5037638  0.0654784    0.00000       Uiso       1.00
      Cl19         Cl  0.9962301  0.3976767  0.9345005    0.00000       Uiso       1.00
      Cl20         Cl  0.0037715  0.6023232  0.9344906    0.00000       Uiso       1.00
      C108          C  0.0394665  0.5222713  0.0412239    0.00000       Uiso       1.00
      C109          C  0.0056014  0.5819770  0.0581892    0.00000       Uiso       1.00
      C110          C  0.9926573  0.5591963  0.0330859    0.00000       Uiso       1.00
      C111          C  0.0106556  0.5291439  0.0239836    0.00000       Uiso       1.00
       H41          H  0.0648054  0.5313910  0.9785727    0.00000       Uiso       1.00
       H42          H  0.0015082  0.5523450  0.9636331    0.00000       Uiso       1.00
      C112          C  0.0819926  0.4943788  0.9418300    0.00000       Uiso       1.00
      C113          C  0.0592213  0.5073160  0.9669461    0.00000       Uiso       1.00
      C114          C  0.0222324  0.4605752  0.9587178    0.00000       Uiso       1.00
      C115          C  0.0291366  0.4893486  0.9760041    0.00000       Uiso       1.00
       H43          H  0.0523844  0.4985278  0.0363136    0.00000       Uiso       1.00
       H44          H  0.0314347  0.4352360  0.0214886    0.00000       Uiso       1.00
      C116          C  0.9180086  0.5056223  0.9418335    0.00000       Uiso       1.00
      C117          C  0.9407781  0.4926859  0.9669496    0.00000       Uiso       1.00
      C118          C  0.9777674  0.5394252  0.9587178    0.00000       Uiso       1.00
      C119          C  0.9708633  0.5106522  0.9760066    0.00000       Uiso       1.00
       H45          H  0.9476205  0.5014901  0.0363406    0.00000       Uiso       1.00
       H46          H  0.9685246  0.5647207  0.0215626    0.00000       Uiso       1.00
      C120          C  0.9605565  0.4777527  0.0412556    0.00000       Uiso       1.00
      C121          C  0.9943858  0.4180127  0.0581723    0.00000       Uiso       1.00
      C122          C  0.0073279  0.4407880  0.0330615    0.00000       Uiso       1.00
      C123          C  0.9893479  0.4708602  0.0239890    0.00000       Uiso       1.00
       H47          H  0.9351921  0.4686130  0.9785758    0.00000       Uiso       1.00
       H48          H  0.9984962  0.4476479  0.9636404    0.00000       Uiso       1.00
      Cl21         Cl  0.9827091  0.6185740  0.0687511    0.00000       Uiso       1.00
      Cl22         Cl  0.0172384  0.3813795  0.0686945    0.00000       Uiso       1.00
      Cl23         Cl  0.1186563  0.5171985  0.9313432    0.00000       Uiso       1.00
      Cl24         Cl  0.8813465  0.4827956  0.9313562    0.00000       Uiso       1.00
      C124          C  0.6857063  0.6116163  0.6357390    0.00000       Uiso       1.00
      C125          C  0.7092798  0.6117992  0.6621297    0.00000       Uiso       1.00
      C126          C  0.7071617  0.5887065  0.6889348    0.00000       Uiso       1.00
      C127          C  0.7319559  0.5881732  0.7142362    0.00000       Uiso       1.00
      C128          C  0.7605154  0.6094871  0.7123014    0.00000       Uiso       1.00
      C129          C  0.7623940  0.6322159  0.6847777    0.00000       Uiso       1.00
      C130          C  0.7360960  0.6354844  0.6609505    0.00000       Uiso       1.00
        O1          O  0.6587856  0.5893185  0.6323737    0.00000       Uiso       1.00
       H49          H  0.6861292  0.5710555  0.6901876    0.00000       Uiso       1.00
       H50          H  0.7285523  0.5706435  0.7349555    0.00000       Uiso       1.00
       H51          H  0.7854077  0.6459963  0.6805645    0.00000       Uiso       1.00
      C131          C  0.8642166  0.8143306  0.6116893    0.00000       Uiso       1.00
      C132          C  0.8378150  0.7907667  0.6118864    0.00000       Uiso       1.00
      C133          C  0.8110150  0.7928697  0.5887850    0.00000       Uiso       1.00
      C134          C  0.7857214  0.7680670  0.5882507    0.00000       Uiso       1.00
      C135          C  0.7876620  0.7395090  0.6095654    0.00000       Uiso       1.00
      C136          C  0.8151740  0.7376573  0.6323135    0.00000       Uiso       1.00
      C137          C  0.8389896  0.7639655  0.6355845    0.00000       Uiso       1.00
        O2          O  0.8676007  0.8412229  0.5893593    0.00000       Uiso       1.00
       H52          H  0.8097658  0.8138851  0.5711161    0.00000       Uiso       1.00
       H53          H  0.7650103  0.7714609  0.5707101    0.00000       Uiso       1.00
       H54          H  0.8194019  0.7146550  0.6461017    0.00000       Uiso       1.00
      C138          C  0.8883231  0.6357536  0.8143198    0.00000       Uiso       1.00
      C139          C  0.8881096  0.6621656  0.7907742    0.00000       Uiso       1.00
      C140          C  0.9111840  0.6889835  0.7929137    0.00000       Uiso       1.00
      C141          C  0.9117006  0.7143059  0.7681376    0.00000       Uiso       1.00
      C142          C  0.8903863  0.7123767  0.7395769    0.00000       Uiso       1.00
      C143          C  0.8676614  0.6848459  0.7376884    0.00000       Uiso       1.00
      C144          C  0.8644190  0.6609911  0.7639652    0.00000       Uiso       1.00
        O3          O  0.9106277  0.6323916  0.8412336    0.00000       Uiso       1.00
       H55          H  0.9288427  0.6902152  0.8139432    0.00000       Uiso       1.00
       H56          H  0.9292268  0.7350280  0.7715489    0.00000       Uiso       1.00
       H57          H  0.8538721  0.6806408  0.7146785    0.00000       Uiso       1.00
      C145          C  0.8665043  0.6089503  0.8117185    0.00000       Uiso       1.00
      C146          C  0.8415698  0.6077054  0.7866391    0.00000       Uiso       1.00
      C147          C  0.8187818  0.5806342  0.7845709    0.00000       Uiso       1.00
      C148          C  0.7931898  0.5804801  0.7600700    0.00000       Uiso       1.00
      C149          C  0.7885774  0.6083569  0.7382746    0.00000       Uiso       1.00
      C150          C  0.8113719  0.6357151  0.7413217    0.00000       Uiso       1.00
      C151          C  0.8393441  0.6348200  0.7633813    0.00000       Uiso       1.00
        O4          O  0.8717354  0.5848584  0.8367170    0.00000       Uiso       1.00
       H58          H  0.8209869  0.5594960  0.8019907    0.00000       Uiso       1.00
       H59          H  0.7770566  0.5584366  0.7587293    0.00000       Uiso       1.00
       H60          H  0.8062576  0.6587384  0.7278769    0.00000       Uiso       1.00
      C152          C  0.8909927  0.8117618  0.6335486    0.00000       Uiso       1.00
      C153          C  0.8922186  0.7866994  0.6585014    0.00000       Uiso       1.00
      C154          C  0.9192519  0.7846695  0.6813393    0.00000       Uiso       1.00
      C155          C  0.9193875  0.7601799  0.7069404    0.00000       Uiso       1.00
      C156          C  0.8915303  0.7383481  0.7115109    0.00000       Uiso       1.00
      C157          C  0.8642084  0.7413618  0.6886684    0.00000       Uiso       1.00
      C158          C  0.8651251  0.7634158  0.6606940    0.00000       Uiso       1.00
        O5          O  0.9150799  0.8367652  0.6283256    0.00000       Uiso       1.00
       H61          H  0.9403844  0.8021023  0.6791571    0.00000       Uiso       1.00
       H62          H  0.9414101  0.7588732  0.7231063    0.00000       Uiso       1.00
       H63          H  0.8411829  0.7279077  0.6937470    0.00000       Uiso       1.00
      C159          C  0.6882815  0.6334767  0.6089625    0.00000       Uiso       1.00
      C160          C  0.7133579  0.6584117  0.6077297    0.00000       Uiso       1.00
      C161          C  0.7153784  0.6812524  0.5807011    0.00000       Uiso       1.00
      C162          C  0.7398624  0.7068583  0.5805635    0.00000       Uiso       1.00
      C163          C  0.7617100  0.7114214  0.6084135    0.00000       Uiso       1.00
      C164          C  0.7587152  0.6885631  0.6357285    0.00000       Uiso       1.00
      C165          C  0.7366535  0.6605924  0.6348143    0.00000       Uiso       1.00
        O6          O  0.6632582  0.6282839  0.5848893    0.00000       Uiso       1.00
       H64          H  0.6979324  0.6790705  0.5595782    0.00000       Uiso       1.00
       H65          H  0.7411480  0.7230343  0.5585473    0.00000       Uiso       1.00
       H66          H  0.7721854  0.6936323  0.6587502    0.00000       Uiso       1.00
        B1          B  0.6447073  0.6001534  0.5999947    0.00000       Uiso       1.00
        B2          B  0.8999872  0.8552966  0.6001758    0.00000       Uiso       1.00
        B3          B  0.8998411  0.5999866  0.8552849    0.00000       Uiso       1.00
      C166          C  0.6857065  0.3883834  0.3642612    0.00000       Uiso       1.00
      C167          C  0.7092801  0.3882005  0.3378705    0.00000       Uiso       1.00
      C168          C  0.7071619  0.4112933  0.3110655    0.00000       Uiso       1.00
      C169          C  0.7319561  0.4118266  0.2857640    0.00000       Uiso       1.00
      C170          C  0.7605156  0.3905127  0.2876989    0.00000       Uiso       1.00
      C171          C  0.7623942  0.3677839  0.3152225    0.00000       Uiso       1.00
      C172          C  0.7360962  0.3645154  0.3390498    0.00000       Uiso       1.00
        O7          O  0.6587858  0.4106812  0.3676266    0.00000       Uiso       1.00
       H67          H  0.6861293  0.4289443  0.3098127    0.00000       Uiso       1.00
       H68          H  0.7285525  0.4293562  0.2650447    0.00000       Uiso       1.00
       H69          H  0.7854080  0.3540035  0.3194357    0.00000       Uiso       1.00
      C173          C  0.8642170  0.1856692  0.3883109    0.00000       Uiso       1.00
      C174          C  0.8378153  0.2092331  0.3881139    0.00000       Uiso       1.00
      C175          C  0.8110153  0.2071301  0.4112153    0.00000       Uiso       1.00
      C176          C  0.7857216  0.2319328  0.4117496    0.00000       Uiso       1.00
      C177          C  0.7876622  0.2604908  0.3904348    0.00000       Uiso       1.00
      C178          C  0.8151743  0.2623425  0.3676867    0.00000       Uiso       1.00
      C179          C  0.8389899  0.2360343  0.3644157    0.00000       Uiso       1.00
        O8          O  0.8676010  0.1587769  0.4106410    0.00000       Uiso       1.00
       H70          H  0.8097661  0.1861147  0.4288841    0.00000       Uiso       1.00
       H71          H  0.7650106  0.2285389  0.4292902    0.00000       Uiso       1.00
       H72          H  0.8194022  0.2853448  0.3538986    0.00000       Uiso       1.00
      C180          C  0.8883233  0.3642462  0.1856805    0.00000       Uiso       1.00
      C181          C  0.8881099  0.3378342  0.2092260    0.00000       Uiso       1.00
      C182          C  0.9111843  0.3110164  0.2070866    0.00000       Uiso       1.00
      C183          C  0.9117009  0.2856940  0.2318626    0.00000       Uiso       1.00
      C184          C  0.8903866  0.2876231  0.2604234    0.00000       Uiso       1.00
      C185          C  0.8676617  0.3151540  0.2623119    0.00000       Uiso       1.00
      C186          C  0.8644192  0.3390088  0.2360350    0.00000       Uiso       1.00
        O9          O  0.9106280  0.3676082  0.1587667    0.00000       Uiso       1.00
       H73          H  0.9288430  0.3097847  0.1860571    0.00000       Uiso       1.00
       H74          H  0.9292270  0.2649719  0.2284514    0.00000       Uiso       1.00
       H75          H  0.8538724  0.3193591  0.2853217    0.00000       Uiso       1.00
      C187          C  0.8665046  0.3910496  0.1882818    0.00000       Uiso       1.00
      C188          C  0.8415701  0.3922945  0.2133612    0.00000       Uiso       1.00
      C189          C  0.8187821  0.4193656  0.2154294    0.00000       Uiso       1.00
      C190          C  0.7931901  0.4195197  0.2399303    0.00000       Uiso       1.00
      C191          C  0.7885777  0.3916429  0.2617256    0.00000       Uiso       1.00
      C192          C  0.8113722  0.3642847  0.2586786    0.00000       Uiso       1.00
      C193          C  0.8393444  0.3651799  0.2366190    0.00000       Uiso       1.00
       O10          O  0.8717356  0.4151415  0.1632833    0.00000       Uiso       1.00
       H76          H  0.8209871  0.4405038  0.1980095    0.00000       Uiso       1.00
       H77          H  0.7770569  0.4415632  0.2412710    0.00000       Uiso       1.00
       H78          H  0.8062578  0.3412614  0.2721234    0.00000       Uiso       1.00
      C194          C  0.8909930  0.1882380  0.3664517    0.00000       Uiso       1.00
      C195          C  0.8922189  0.2133005  0.3414989    0.00000       Uiso       1.00
      C196          C  0.9192522  0.2153303  0.3186610    0.00000       Uiso       1.00
      C197          C  0.9193878  0.2398200  0.2930599    0.00000       Uiso       1.00
      C198          C  0.8915306  0.2616518  0.2884894    0.00000       Uiso       1.00
      C199          C  0.8642087  0.2586380  0.3113319    0.00000       Uiso       1.00
      C200          C  0.8651254  0.2365840  0.3393063    0.00000       Uiso       1.00
       O11          O  0.9150801  0.1632347  0.3716747    0.00000       Uiso       1.00
       H79          H  0.9403847  0.1978976  0.3208432    0.00000       Uiso       1.00
       H80          H  0.9414104  0.2411266  0.2768941    0.00000       Uiso       1.00
       H81          H  0.8411832  0.2720922  0.3062532    0.00000       Uiso       1.00
      C201          C  0.6882817  0.3665231  0.3910377    0.00000       Uiso       1.00
      C202          C  0.7133582  0.3415881  0.3922705    0.00000       Uiso       1.00
      C203          C  0.7153786  0.3187474  0.4192991    0.00000       Uiso       1.00
      C204          C  0.7398627  0.2931415  0.4194367    0.00000       Uiso       1.00
      C205          C  0.7617103  0.2885784  0.3915868    0.00000       Uiso       1.00
      C206          C  0.7587155  0.3114367  0.3642718    0.00000       Uiso       1.00
      C207          C  0.7366537  0.3394074  0.3651860    0.00000       Uiso       1.00
       O12          O  0.6632584  0.3717159  0.4151109    0.00000       Uiso       1.00
       H82          H  0.6979325  0.3209293  0.4404220    0.00000       Uiso       1.00
       H83          H  0.7411482  0.2769654  0.4414529    0.00000       Uiso       1.00
       H84          H  0.7721856  0.3063675  0.3412501    0.00000       Uiso       1.00
        B4          B  0.6447075  0.3998463  0.4000055    0.00000       Uiso       1.00
        B5          B  0.8999875  0.1447032  0.3998245    0.00000       Uiso       1.00
        B6          B  0.8998414  0.4000132  0.1447154    0.00000       Uiso       1.00
      C208          C  0.3142920  0.6116163  0.3642613    0.00000       Uiso       1.00
      C209          C  0.2907184  0.6117992  0.3378706    0.00000       Uiso       1.00
      C210          C  0.2928366  0.5887064  0.3110655    0.00000       Uiso       1.00
      C211          C  0.2680424  0.5881731  0.2857641    0.00000       Uiso       1.00
      C212          C  0.2394829  0.6094870  0.2876989    0.00000       Uiso       1.00
      C213          C  0.2376043  0.6322157  0.3152225    0.00000       Uiso       1.00
      C214          C  0.2639023  0.6354843  0.3390498    0.00000       Uiso       1.00
       O13          O  0.3412127  0.5893185  0.3676266    0.00000       Uiso       1.00
       H85          H  0.3138692  0.5710554  0.3098128    0.00000       Uiso       1.00
       H86          H  0.2714460  0.5706435  0.2650448    0.00000       Uiso       1.00
       H87          H  0.2145906  0.6459962  0.3194357    0.00000       Uiso       1.00
      C215          C  0.1357816  0.8143305  0.3883109    0.00000       Uiso       1.00
      C216          C  0.1621833  0.7907667  0.3881139    0.00000       Uiso       1.00
      C217          C  0.1889832  0.7928696  0.4112153    0.00000       Uiso       1.00
      C218          C  0.2142769  0.7680669  0.4117496    0.00000       Uiso       1.00
      C219          C  0.2123362  0.7395089  0.3904348    0.00000       Uiso       1.00
      C220          C  0.1848243  0.7376572  0.3676867    0.00000       Uiso       1.00
      C221          C  0.1610086  0.7639654  0.3644157    0.00000       Uiso       1.00
       O14          O  0.1323975  0.8412229  0.4106410    0.00000       Uiso       1.00
       H88          H  0.1902324  0.8138850  0.4288841    0.00000       Uiso       1.00
       H89          H  0.2349879  0.7714608  0.4292902    0.00000       Uiso       1.00
       H90          H  0.1805963  0.7146549  0.3538986    0.00000       Uiso       1.00
      C222          C  0.1116752  0.6357534  0.1856805    0.00000       Uiso       1.00
      C223          C  0.1118887  0.6621655  0.2092260    0.00000       Uiso       1.00
      C224          C  0.0888143  0.6889833  0.2070866    0.00000       Uiso       1.00
      C225          C  0.0882977  0.7143057  0.2318626    0.00000       Uiso       1.00
      C226          C  0.1096119  0.7123766  0.2604234    0.00000       Uiso       1.00
      C227          C  0.1323369  0.6848457  0.2623119    0.00000       Uiso       1.00
      C228          C  0.1355793  0.6609909  0.2360350    0.00000       Uiso       1.00
       O15          O  0.0893706  0.6323915  0.1587667    0.00000       Uiso       1.00
       H91          H  0.0711556  0.6902151  0.1860571    0.00000       Uiso       1.00
       H92          H  0.0707715  0.7350277  0.2284514    0.00000       Uiso       1.00
       H93          H  0.1461261  0.6806406  0.2853217    0.00000       Uiso       1.00
      C229          C  0.1334940  0.6089501  0.1882818    0.00000       Uiso       1.00
      C230          C  0.1584284  0.6077052  0.2133612    0.00000       Uiso       1.00
      C231          C  0.1812164  0.5806341  0.2154294    0.00000       Uiso       1.00
      C232          C  0.2068085  0.5804799  0.2399303    0.00000       Uiso       1.00
      C233          C  0.2114209  0.6083568  0.2617256    0.00000       Uiso       1.00
      C234          C  0.1886264  0.6357149  0.2586786    0.00000       Uiso       1.00
      C235          C  0.1606542  0.6348199  0.2366190    0.00000       Uiso       1.00
       O16          O  0.1282629  0.5848582  0.1632833    0.00000       Uiso       1.00
       H94          H  0.1790114  0.5594959  0.1980096    0.00000       Uiso       1.00
       H95          H  0.2229417  0.5584365  0.2412710    0.00000       Uiso       1.00
       H96          H  0.1937407  0.6587383  0.2721234    0.00000       Uiso       1.00
      C236          C  0.1090055  0.8117617  0.3664517    0.00000       Uiso       1.00
      C237          C  0.1077796  0.7866992  0.3414989    0.00000       Uiso       1.00
      C238          C  0.0807463  0.7846694  0.3186610    0.00000       Uiso       1.00
      C239          C  0.0806107  0.7601797  0.2930599    0.00000       Uiso       1.00
      C240          C  0.1084679  0.7383479  0.2884894    0.00000       Uiso       1.00
      C241          C  0.1357899  0.7413617  0.3113319    0.00000       Uiso       1.00
      C242          C  0.1348732  0.7634157  0.3393063    0.00000       Uiso       1.00
       O17          O  0.0849183  0.8367650  0.3716747    0.00000       Uiso       1.00
       H97          H  0.0596138  0.8021021  0.3208431    0.00000       Uiso       1.00
       H98          H  0.0585881  0.7588730  0.2768940    0.00000       Uiso       1.00
       H99          H  0.1588154  0.7279075  0.3062532    0.00000       Uiso       1.00
      C243          C  0.3117168  0.6334767  0.3910378    0.00000       Uiso       1.00
      C244          C  0.2866404  0.6584116  0.3922705    0.00000       Uiso       1.00
      C245          C  0.2846199  0.6812524  0.4192992    0.00000       Uiso       1.00
      C246          C  0.2601358  0.7068582  0.4194367    0.00000       Uiso       1.00
      C247          C  0.2382882  0.7114213  0.3915868    0.00000       Uiso       1.00
      C248          C  0.2412830  0.6885630  0.3642718    0.00000       Uiso       1.00
      C249          C  0.2633448  0.6605923  0.3651860    0.00000       Uiso       1.00
       O18          O  0.3367401  0.6282838  0.4151110    0.00000       Uiso       1.00
      H100          H  0.3020659  0.6790705  0.4404220    0.00000       Uiso       1.00
      H101          H  0.2588502  0.7230343  0.4414530    0.00000       Uiso       1.00
      H102          H  0.2278129  0.6936322  0.3412501    0.00000       Uiso       1.00
        B7          B  0.3552909  0.6001534  0.4000055    0.00000       Uiso       1.00
        B8          B  0.1000110  0.8552965  0.3998244    0.00000       Uiso       1.00
        B9          B  0.1001572  0.5999864  0.1447154    0.00000       Uiso       1.00
      C250          C  0.3142920  0.3883834  0.6357390    0.00000       Uiso       1.00
      C251          C  0.2907184  0.3882006  0.6621297    0.00000       Uiso       1.00
      C252          C  0.2928366  0.4112933  0.6889348    0.00000       Uiso       1.00
      C253          C  0.2680423  0.4118266  0.7142363    0.00000       Uiso       1.00
      C254          C  0.2394828  0.3905127  0.7123014    0.00000       Uiso       1.00
      C255          C  0.2376043  0.3677839  0.6847778    0.00000       Uiso       1.00
      C256          C  0.2639023  0.3645154  0.6609505    0.00000       Uiso       1.00
       O19          O  0.3412127  0.4106813  0.6323737    0.00000       Uiso       1.00
      H103          H  0.3138691  0.4289443  0.6901876    0.00000       Uiso       1.00
      H104          H  0.2714460  0.4293562  0.7349555    0.00000       Uiso       1.00
      H105          H  0.2145905  0.3540035  0.6805645    0.00000       Uiso       1.00
      C257          C  0.1357816  0.1856692  0.6116894    0.00000       Uiso       1.00
      C258          C  0.1621833  0.2092330  0.6118864    0.00000       Uiso       1.00
      C259          C  0.1889832  0.2071301  0.5887850    0.00000       Uiso       1.00
      C260          C  0.2142769  0.2319328  0.5882507    0.00000       Uiso       1.00
      C261          C  0.2123363  0.2604908  0.6095655    0.00000       Uiso       1.00
      C262          C  0.1848243  0.2623425  0.6323135    0.00000       Uiso       1.00
      C263          C  0.1610087  0.2360343  0.6355845    0.00000       Uiso       1.00
       O20          O  0.1323976  0.1587768  0.5893593    0.00000       Uiso       1.00
      H106          H  0.1902325  0.1861146  0.5711162    0.00000       Uiso       1.00
      H107          H  0.2349879  0.2285388  0.5707101    0.00000       Uiso       1.00
      H108          H  0.1805963  0.2853447  0.6461017    0.00000       Uiso       1.00
      C264          C  0.1116751  0.3642462  0.8143198    0.00000       Uiso       1.00
      C265          C  0.1118886  0.3378341  0.7907742    0.00000       Uiso       1.00
      C266          C  0.0888143  0.3110163  0.7929137    0.00000       Uiso       1.00
      C267          C  0.0882977  0.2856939  0.7681376    0.00000       Uiso       1.00
      C268          C  0.1096119  0.2876230  0.7395769    0.00000       Uiso       1.00
      C269          C  0.1323369  0.3151540  0.7376884    0.00000       Uiso       1.00
      C270          C  0.1355792  0.3390087  0.7639652    0.00000       Uiso       1.00
       O21          O  0.0893705  0.3676082  0.8412336    0.00000       Uiso       1.00
      H109          H  0.0711556  0.3097846  0.8139432    0.00000       Uiso       1.00
      H110          H  0.0707715  0.2649719  0.7715489    0.00000       Uiso       1.00
      H111          H  0.1461261  0.3193591  0.7146785    0.00000       Uiso       1.00
      C271          C  0.1334939  0.3910495  0.8117185    0.00000       Uiso       1.00
      C272          C  0.1584284  0.3922945  0.7866391    0.00000       Uiso       1.00
      C273          C  0.1812164  0.4193656  0.7845709    0.00000       Uiso       1.00
      C274          C  0.2068084  0.4195197  0.7600700    0.00000       Uiso       1.00
      C275          C  0.2114208  0.3916429  0.7382746    0.00000       Uiso       1.00
      C276          C  0.1886263  0.3642847  0.7413217    0.00000       Uiso       1.00
      C277          C  0.1606541  0.3651798  0.7633813    0.00000       Uiso       1.00
       O22          O  0.1282628  0.4151415  0.8367170    0.00000       Uiso       1.00
      H112          H  0.1790113  0.4405038  0.8019907    0.00000       Uiso       1.00
      H113          H  0.2229416  0.4415632  0.7587293    0.00000       Uiso       1.00
      H114          H  0.1937406  0.3412614  0.7278769    0.00000       Uiso       1.00
      C278          C  0.1090056  0.1882380  0.6335486    0.00000       Uiso       1.00
      C279          C  0.1077797  0.2133004  0.6585014    0.00000       Uiso       1.00
      C280          C  0.0807463  0.2153303  0.6813393    0.00000       Uiso       1.00
      C281          C  0.0806107  0.2398199  0.7069404    0.00000       Uiso       1.00
      C282          C  0.1084679  0.2616517  0.7115109    0.00000       Uiso       1.00
      C283          C  0.1357899  0.2586380  0.6886684    0.00000       Uiso       1.00
      C284          C  0.1348732  0.2365840  0.6606941    0.00000       Uiso       1.00
       O23          O  0.0849184  0.1632346  0.6283256    0.00000       Uiso       1.00
      H115          H  0.0596138  0.1978975  0.6791571    0.00000       Uiso       1.00
      H116          H  0.0585881  0.2411266  0.7231063    0.00000       Uiso       1.00
      H117          H  0.1588154  0.2720921  0.6937471    0.00000       Uiso       1.00
      C285          C  0.3117168  0.3665231  0.6089625    0.00000       Uiso       1.00
      C286          C  0.2866403  0.3415881  0.6077298    0.00000       Uiso       1.00
      C287          C  0.2846199  0.3187474  0.5807012    0.00000       Uiso       1.00
      C288          C  0.2601358  0.2931415  0.5805635    0.00000       Uiso       1.00
      C289          C  0.2382882  0.2885784  0.6084135    0.00000       Uiso       1.00
      C290          C  0.2412830  0.3114367  0.6357285    0.00000       Uiso       1.00
      C291          C  0.2633447  0.3394074  0.6348143    0.00000       Uiso       1.00
       O24          O  0.3367401  0.3717159  0.5848894    0.00000       Uiso       1.00
      H118          H  0.3020659  0.3209293  0.5595783    0.00000       Uiso       1.00
      H119          H  0.2588503  0.2769654  0.5585473    0.00000       Uiso       1.00
      H120          H  0.2278128  0.3063675  0.6587502    0.00000       Uiso       1.00
       B10          B  0.3552909  0.3998464  0.5999948    0.00000       Uiso       1.00
       B11          B  0.1000111  0.1447031  0.6001758    0.00000       Uiso       1.00
       B12          B  0.1001571  0.4000132  0.8552849    0.00000       Uiso       1.00
