data_11
_audit_creation_date              0000-00-00
_audit_creation_method            'LanYouShi'
_symmetry_space_group_name_H-M    'P1'
_cell_length_a                    84.9225998
_cell_length_b                    73.5671005
_cell_length_c                    73.5671005
_cell_angle_alpha                 70.5409012
_cell_angle_beta                  54.7476006
_cell_angle_gamma                 54.7472992
loop_
_atom_site_label
_atom_site_type_symbol
_atom_site_fract_x
_atom_site_fract_y
_atom_site_fract_z
_atom_site_U_iso_or_equiv
_atom_site_adp_type
_atom_site_occupancy
        C1          C  0.4999986  0.5000010  0.5000002    0.00000       Uiso       1.00
        C2          C  0.3238261  0.6357567  0.5713002    0.00000       Uiso       1.00
        C3          C  0.3317882  0.6126831  0.5759020    0.00000       Uiso       1.00
        C4          C  0.3163504  0.6050847  0.5907813    0.00000       Uiso       1.00
        C5          C  0.2932255  0.6203961  0.6011696    0.00000       Uiso       1.00
        C6          C  0.2852635  0.6435120  0.5967686    0.00000       Uiso       1.00
        C7          C  0.3006960  0.6511051  0.5817677    0.00000       Uiso       1.00
        H1          H  0.2949330  0.6688688  0.5780141    0.00000       Uiso       1.00
        H2          H  0.3222137  0.5872893  0.5943448    0.00000       Uiso       1.00
        H3          H  0.2816183  0.6141358  0.6126419    0.00000       Uiso       1.00
        C8          C  0.5923070  0.5759016  0.3873197    0.00000       Uiso       1.00
        C9          C  0.6048711  0.5712996  0.3642461    0.00000       Uiso       1.00
       C10          C  0.5928654  0.5907809  0.3949182    0.00000       Uiso       1.00
       C11          C  0.6056020  0.6011689  0.3796070    0.00000       Uiso       1.00
       C12          C  0.6179652  0.5967677  0.3564912    0.00000       Uiso       1.00
       C13          C  0.6175336  0.5817669  0.3488979    0.00000       Uiso       1.00
        H4          H  0.6270503  0.5780131  0.3311342    0.00000       Uiso       1.00
        H5          H  0.5834386  0.5943444  0.4127135    0.00000       Uiso       1.00
        H6          H  0.6057370  0.6126412  0.3858674    0.00000       Uiso       1.00
       C14          C  0.5203716  0.3873203  0.4240986    0.00000       Uiso       1.00
       C15          C  0.5308813  0.3642466  0.4287004    0.00000       Uiso       1.00
       C16          C  0.5122147  0.3949189  0.4092193    0.00000       Uiso       1.00
       C17          C  0.5147894  0.3796076  0.3988310    0.00000       Uiso       1.00
       C18          C  0.5255421  0.3564917  0.4032321    0.00000       Uiso       1.00
       C19          C  0.5335670  0.3488984  0.4182329    0.00000       Uiso       1.00
        H7          H  0.5418141  0.3311346  0.4219866    0.00000       Uiso       1.00
        H8          H  0.5038460  0.4127142  0.4056559    0.00000       Uiso       1.00
        H9          H  0.5083940  0.3858680  0.3873589    0.00000       Uiso       1.00
       C20          C  0.5555278  0.4240991  0.6126806    0.00000       Uiso       1.00
       C21          C  0.5404161  0.4287011  0.6357542    0.00000       Uiso       1.00
       C22          C  0.5785640  0.4092196  0.6050820    0.00000       Uiso       1.00
       C23          C  0.5863777  0.3988313  0.6203932    0.00000       Uiso       1.00
       C24          C  0.5712238  0.4032326  0.6435090    0.00000       Uiso       1.00
       C25          C  0.5481980  0.4182335  0.6511024    0.00000       Uiso       1.00
       H10          H  0.5361972  0.4219874  0.6688660    0.00000       Uiso       1.00
       H11          H  0.5904962  0.4056560  0.5872867    0.00000       Uiso       1.00
       H12          H  0.6042453  0.3873589  0.6141328    0.00000       Uiso       1.00
       Br1         Br  0.6051802  0.5508722  0.3532776    0.00000       Uiso       1.00
       Br2         Br  0.3439444  0.6467250  0.5508728    0.00000       Uiso       1.00
       Br3         Br  0.5093291  0.4491288  0.6467227    0.00000       Uiso       1.00
       Br4         Br  0.5415407  0.3532780  0.4491277    0.00000       Uiso       1.00
       C26          C  0.3939271  0.5837017  0.5325958    0.00000       Uiso       1.00
       C27          C  0.4028861  0.5645622  0.5440269    0.00000       Uiso       1.00
       C28          C  0.3881982  0.5615602  0.5660889    0.00000       Uiso       1.00
       C29          C  0.3653515  0.5771809  0.5764207    0.00000       Uiso       1.00
       C30          C  0.3563346  0.5962332  0.5649124    0.00000       Uiso       1.00
       C31          C  0.3710166  0.5992367  0.5428057    0.00000       Uiso       1.00
       H13          H  0.4047589  0.5867661  0.5157753    0.00000       Uiso       1.00
       H14          H  0.3647986  0.6134775  0.5332491    0.00000       Uiso       1.00
       H15          H  0.3943819  0.5469264  0.5753146    0.00000       Uiso       1.00
       H16          H  0.3547766  0.5744026  0.5935498    0.00000       Uiso       1.00
       C32          C  0.5530843  0.5440270  0.4354397    0.00000       Uiso       1.00
       C33          C  0.5734746  0.5325956  0.4163004    0.00000       Uiso       1.00
       C34          C  0.5457100  0.5660891  0.4384418    0.00000       Uiso       1.00
       C35          C  0.5582249  0.5764207  0.4228215    0.00000       Uiso       1.00
       C36          C  0.5787504  0.5649122  0.4037693    0.00000       Uiso       1.00
       C37          C  0.5861751  0.5428054  0.4007656    0.00000       Uiso       1.00
       H17          H  0.5794635  0.5157750  0.4132359    0.00000       Uiso       1.00
       H18          H  0.6019499  0.5332485  0.3865249    0.00000       Uiso       1.00
       H19          H  0.5303004  0.5753151  0.4530755    0.00000       Uiso       1.00
       H20          H  0.5516707  0.5935498  0.4255998    0.00000       Uiso       1.00
       C38          C  0.5114740  0.4354404  0.4559736    0.00000       Uiso       1.00
       C39          C  0.5102232  0.4163011  0.4674048    0.00000       Uiso       1.00
       C40          C  0.5158461  0.4384425  0.4339117    0.00000       Uiso       1.00
       C41          C  0.5189517  0.4228221  0.4235798    0.00000       Uiso       1.00
       C42          C  0.5174786  0.4037699  0.4350881    0.00000       Uiso       1.00
       C43          C  0.5130576  0.4007662  0.4571948    0.00000       Uiso       1.00
       H21          H  0.5072989  0.4132366  0.4842252    0.00000       Uiso       1.00
       H22          H  0.5115237  0.3865255  0.4667514    0.00000       Uiso       1.00
       H23          H  0.5166218  0.4530762  0.4246859    0.00000       Uiso       1.00
       H24          H  0.5227274  0.4256004  0.4064508    0.00000       Uiso       1.00
       C44          C  0.5325503  0.4559743  0.5645605    0.00000       Uiso       1.00
       C45          C  0.5223697  0.4674054  0.5837000    0.00000       Uiso       1.00
       C46          C  0.5502405  0.4339122  0.5615582    0.00000       Uiso       1.00
       C47          C  0.5574667  0.4235803  0.5771786    0.00000       Uiso       1.00
       C48          C  0.5474312  0.4350886  0.5962310    0.00000       Uiso       1.00
       C49          C  0.5297452  0.4571955  0.5992348    0.00000       Uiso       1.00
       H25          H  0.5084732  0.4842260  0.5867647    0.00000       Uiso       1.00
       H26          H  0.5217223  0.4667521  0.6134757    0.00000       Uiso       1.00
       H27          H  0.5586908  0.4246864  0.5469244    0.00000       Uiso       1.00
       H28          H  0.5708202  0.4064512  0.5744001    0.00000       Uiso       1.00
       C50          C  0.4629832  0.5278915  0.5000393    0.00000       Uiso       1.00
       C51          C  0.4743696  0.5168067  0.5121976    0.00000       Uiso       1.00
       C52          C  0.4612725  0.5209413  0.5353831    0.00000       Uiso       1.00
       C53          C  0.4384050  0.5364339  0.5454944    0.00000       Uiso       1.00
       C54          C  0.4274121  0.5479180  0.5330886    0.00000       Uiso       1.00
       C55          C  0.4400425  0.5431885  0.5102129    0.00000       Uiso       1.00
       H29          H  0.4721024  0.5247658  0.4823852    0.00000       Uiso       1.00
       H30          H  0.4321539  0.5510857  0.5001497    0.00000       Uiso       1.00
       H31          H  0.4683139  0.5122804  0.5461395    0.00000       Uiso       1.00
       C56          C  0.5134301  0.5121983  0.4831947    0.00000       Uiso       1.00
       C57          C  0.5369751  0.5000397  0.4721100    0.00000       Uiso       1.00
       C58          C  0.5033416  0.5353838  0.4790600    0.00000       Uiso       1.00
       C59          C  0.5160978  0.5454948  0.4635676    0.00000       Uiso       1.00
       C60          C  0.5394967  0.5330888  0.4520838    0.00000       Uiso       1.00
       C61          C  0.5497421  0.5102132  0.4568133    0.00000       Uiso       1.00
       H32          H  0.5455101  0.4823856  0.4752357    0.00000       Uiso       1.00
       H33          H  0.5676939  0.5001498  0.4489161    0.00000       Uiso       1.00
       H34          H  0.4855436  0.5461403  0.4877206    0.00000       Uiso       1.00
       C62          C  0.5033728  0.4831954  0.4878027    0.00000       Uiso       1.00
       C63          C  0.4909128  0.4721107  0.4999612    0.00000       Uiso       1.00
       C64          C  0.5175959  0.4790608  0.4646173    0.00000       Uiso       1.00
       C65          C  0.5203323  0.4635683  0.4545061    0.00000       Uiso       1.00
       C66          C  0.5084175  0.4520844  0.4669119    0.00000       Uiso       1.00
       C67          C  0.4934427  0.4568138  0.4897875    0.00000       Uiso       1.00
       H35          H  0.4792523  0.4752363  0.5176153    0.00000       Uiso       1.00
       H36          H  0.4833882  0.4489166  0.4998509    0.00000       Uiso       1.00
       H37          H  0.5267331  0.4877214  0.4538609    0.00000       Uiso       1.00
       C68          C  0.5088221  0.4878035  0.5168056    0.00000       Uiso       1.00
       C69          C  0.5091233  0.4999620  0.5278908    0.00000       Uiso       1.00
       C70          C  0.5177851  0.4646179  0.5209397    0.00000       Uiso       1.00
       C71          C  0.5251601  0.4545066  0.5364320    0.00000       Uiso       1.00
       C72          C  0.5246685  0.4669126  0.5479165    0.00000       Uiso       1.00
       C73          C  0.5167670  0.4897884  0.5431876    0.00000       Uiso       1.00
       H38          H  0.5031292  0.5176163  0.5247655    0.00000       Uiso       1.00
       H39          H  0.5167577  0.4998519  0.5510852    0.00000       Uiso       1.00
       H40          H  0.5194049  0.4538614  0.5122785    0.00000       Uiso       1.00
       Br5         Br  0.5009028  0.5766251  0.4580589    0.00000       Uiso       1.00
       Br6         Br  0.4224696  0.5419425  0.5766246    0.00000       Uiso       1.00
       Br7         Br  0.5355879  0.4233762  0.5419397    0.00000       Uiso       1.00
       Br8         Br  0.5410358  0.4580596  0.4233758    0.00000       Uiso       1.00
       C74          C  0.8748319  0.6251101  0.8749999    0.00000       Uiso       1.00
       C75          C  0.7389666  0.7300149  0.8347083    0.00000       Uiso       1.00
       C76          C  0.7620418  0.7174528  0.8195876    0.00000       Uiso       1.00
       C77          C  0.7696268  0.7180176  0.7965586    0.00000       Uiso       1.00
       C78          C  0.7543006  0.7307590  0.7887611    0.00000       Uiso       1.00
       C79          C  0.7311831  0.7431203  0.8039240    0.00000       Uiso       1.00
       C80          C  0.7236032  0.7426822  0.8269425    0.00000       Uiso       1.00
       H41          H  0.7058386  0.7521972  0.8389502    0.00000       Uiso       1.00
       H42          H  0.7874233  0.7085924  0.7846197    0.00000       Uiso       1.00
       H43          H  0.7605507  0.7308990  0.7708987    0.00000       Uiso       1.00
       C81          C  0.7990232  0.6454315  0.0431770    0.00000       Uiso       1.00
       C82          C  0.8036410  0.6559309  0.0511381    0.00000       Uiso       1.00
       C83          C  0.7841407  0.6372781  0.0586107    0.00000       Uiso       1.00
       C84          C  0.7737648  0.6398461  0.0817310    0.00000       Uiso       1.00
       C85          C  0.7781818  0.6505885  0.0896922    0.00000       Uiso       1.00
       C86          C  0.7931859  0.6586098  0.0742637    0.00000       Uiso       1.00
       H44          H  0.7969518  0.6668489  0.0800260    0.00000       Uiso       1.00
       H45          H  0.7805650  0.6289176  0.0527480    0.00000       Uiso       1.00
       H46          H  0.7622898  0.6334537  0.0933352    0.00000       Uiso       1.00
       C87          C  0.9875562  0.6806040  0.7827076    0.00000       Uiso       1.00
       C88          C  0.0106326  0.6654943  0.7701322    0.00000       Uiso       1.00
       C89          C  0.9799606  0.7036335  0.7821633    0.00000       Uiso       1.00
       C90          C  0.9952777  0.7114423  0.7694291    0.00000       Uiso       1.00
       C91          C  0.0183965  0.6962903  0.7570544    0.00000       Uiso       1.00
       C92          C  0.0259867  0.6732713  0.7574720    0.00000       Uiso       1.00
       H47          H  0.0437525  0.6612720  0.7479463    0.00000       Uiso       1.00
       H48          H  0.9621630  0.7155642  0.7915990    0.00000       Uiso       1.00
       H49          H  0.9890195  0.7293048  0.7693049    0.00000       Uiso       1.00
       C93          C  0.9507084  0.4569505  0.8545271    0.00000       Uiso       1.00
       C94          C  0.9460895  0.4489988  0.8440206    0.00000       Uiso       1.00
       C95          C  0.9656015  0.4415094  0.8626668    0.00000       Uiso       1.00
       C96          C  0.9759865  0.4183913  0.8600782    0.00000       Uiso       1.00
       C97          C  0.9715681  0.4104397  0.8493288    0.00000       Uiso       1.00
       C98          C  0.9565536  0.4258755  0.8413211    0.00000       Uiso       1.00
       H50          H  0.9527867  0.4201206  0.8330768    0.00000       Uiso       1.00
       H51          H  0.9691782  0.4473646  0.8710327    0.00000       Uiso       1.00
       H52          H  0.9874694  0.4067813  0.8664604    0.00000       Uiso       1.00
       Br9         Br  0.8240735  0.6665851  0.0310245    0.00000       Uiso       1.00
      Br10         Br  0.7280160  0.7303150  0.8657862    0.00000       Uiso       1.00
      Br11         Br  0.9256431  0.4691221  0.8333842    0.00000       Uiso       1.00
      Br12         Br  0.0215968  0.6344166  0.7698044    0.00000       Uiso       1.00
       C99          C  0.7910697  0.6986009  0.8527091    0.00000       Uiso       1.00
      C100          C  0.8102083  0.6782157  0.8425155    0.00000       Uiso       1.00
      C101          C  0.8131940  0.6708513  0.8248289    0.00000       Uiso       1.00
      C102          C  0.7975587  0.6833709  0.8176185    0.00000       Uiso       1.00
      C103          C  0.7785074  0.7038911  0.8276671    0.00000       Uiso       1.00
      C104          C  0.7755200  0.7113060  0.8453496    0.00000       Uiso       1.00
       H53          H  0.7880176  0.7045822  0.8666031    0.00000       Uiso       1.00
       H54          H  0.7612806  0.7270765  0.8533821    0.00000       Uiso       1.00
       H55          H  0.8278264  0.6554459  0.8163691    0.00000       Uiso       1.00
       H56          H  0.8003247  0.6768243  0.8042670    0.00000       Uiso       1.00
      C105          C  0.8308576  0.6365569  0.9720933    0.00000       Uiso       1.00
      C106          C  0.8423064  0.6352974  0.9810425    0.00000       Uiso       1.00
      C107          C  0.8087909  0.6409307  0.9867862    0.00000       Uiso       1.00
      C108          C  0.7984733  0.6440275  0.0096284    0.00000       Uiso       1.00
      C109          C  0.8099993  0.6425458  0.0186356    0.00000       Uiso       1.00
      C110          C  0.8321109  0.6381231  0.0039482    0.00000       Uiso       1.00
       H57          H  0.8591312  0.6323715  0.9702069    0.00000       Uiso       1.00
       H58          H  0.8416811  0.6365827  0.0101586    0.00000       Uiso       1.00
       H59          H  0.7995514  0.6417131  0.9806098    0.00000       Uiso       1.00
       H60          H  0.7813399  0.6478048  0.0202079    0.00000       Uiso       1.00
      C111          C  0.9394176  0.6576412  0.8219239    0.00000       Uiso       1.00
      C112          C  0.9585513  0.6474657  0.8015298    0.00000       Uiso       1.00
      C113          C  0.9364272  0.6753213  0.8293042    0.00000       Uiso       1.00
      C114          C  0.9520537  0.6825428  0.8167911    0.00000       Uiso       1.00
      C115          C  0.9711002  0.6725125  0.7962620    0.00000       Uiso       1.00
      C116          C  0.9740921  0.6548366  0.7888314    0.00000       Uiso       1.00
       H61          H  0.9616071  0.6335771  0.7955360    0.00000       Uiso       1.00
       H62          H  0.9883281  0.6468180  0.7730538    0.00000       Uiso       1.00
       H63          H  0.9217978  0.6837674  0.8447170    0.00000       Uiso       1.00
       H64          H  0.9492845  0.6958885  0.8233496    0.00000       Uiso       1.00
      C117          C  0.9188445  0.5280267  0.8634669    0.00000       Uiso       1.00
      C118          C  0.9074003  0.5190765  0.8647178    0.00000       Uiso       1.00
      C119          C  0.9409157  0.5133374  0.8590805    0.00000       Uiso       1.00
      C120          C  0.9512439  0.4904977  0.8559614    0.00000       Uiso       1.00
      C121          C  0.9397226  0.4814894  0.8574346    0.00000       Uiso       1.00
      C122          C  0.9176066  0.4961730  0.8618699    0.00000       Uiso       1.00
       H65          H  0.8905722  0.5299097  0.8676531    0.00000       Uiso       1.00
       H66          H  0.9080400  0.4899614  0.8634046    0.00000       Uiso       1.00
       H67          H  0.9501517  0.5195143  0.8583040    0.00000       Uiso       1.00
       H68          H  0.9683802  0.4799215  0.8521751    0.00000       Uiso       1.00
      C123          C  0.8469250  0.6620867  0.8659078    0.00000       Uiso       1.00
      C124          C  0.8580096  0.6385472  0.8661940    0.00000       Uiso       1.00
      C125          C  0.8538588  0.6284691  0.8572327    0.00000       Uiso       1.00
      C126          C  0.8383515  0.6412299  0.8498738    0.00000       Uiso       1.00
      C127          C  0.8268682  0.6646232  0.8503803    0.00000       Uiso       1.00
      C128          C  0.8316135  0.6748582  0.8582801    0.00000       Uiso       1.00
       H69          H  0.8500627  0.6706136  0.8719012    0.00000       Uiso       1.00
       H70          H  0.8237171  0.6928056  0.8583004    0.00000       Uiso       1.00
       H71          H  0.8625179  0.6106761  0.8556022    0.00000       Uiso       1.00
      C129          C  0.8626479  0.6284769  0.9006242    0.00000       Uiso       1.00
      C130          C  0.8748218  0.6160116  0.9119947    0.00000       Uiso       1.00
      C131          C  0.8394597  0.6426985  0.9137321    0.00000       Uiso       1.00
      C132          C  0.8293610  0.6454279  0.9365950    0.00000       Uiso       1.00
      C133          C  0.8417825  0.6335077  0.9475721    0.00000       Uiso       1.00
      C134          C  0.8646606  0.6185348  0.9349306    0.00000       Uiso       1.00
       H72          H  0.8924783  0.6043523  0.9028664    0.00000       Uiso       1.00
       H73          H  0.8747355  0.6084765  0.9428066    0.00000       Uiso       1.00
       H74          H  0.8286915  0.6518397  0.9067026    0.00000       Uiso       1.00
      C135          C  0.8916444  0.6339278  0.8615709    0.00000       Uiso       1.00
      C136          C  0.9027185  0.6342347  0.8380317    0.00000       Uiso       1.00
      C137          C  0.8957958  0.6428799  0.8716570    0.00000       Uiso       1.00
      C138          C  0.9112942  0.6502501  0.8589029    0.00000       Uiso       1.00
      C139          C  0.9227672  0.6497644  0.8355093    0.00000       Uiso       1.00
      C140          C  0.9180211  0.6418737  0.8252671    0.00000       Uiso       1.00
       H75          H  0.8995798  0.6282489  0.8294994    0.00000       Uiso       1.00
       H76          H  0.9259094  0.6418692  0.8073198    0.00000       Uiso       1.00
       H77          H  0.8871438  0.6444945  0.8894516    0.00000       Uiso       1.00
      C141          C  0.8870259  0.5994887  0.8716104    0.00000       Uiso       1.00
      C142          C  0.8748625  0.5881075  0.8840650    0.00000       Uiso       1.00
      C143          C  0.9102136  0.5863932  0.8573781    0.00000       Uiso       1.00
      C144          C  0.9203213  0.5635328  0.8546282    0.00000       Uiso       1.00
      C145          C  0.9079099  0.5525452  0.8665378    0.00000       Uiso       1.00
      C146          C  0.8850328  0.5651737  0.8815213    0.00000       Uiso       1.00
       H78          H  0.8572069  0.5972255  0.8957319    0.00000       Uiso       1.00
       H79          H  0.8749657  0.5572889  0.8915721    0.00000       Uiso       1.00
       H80          H  0.9209747  0.5934308  0.8482437    0.00000       Uiso       1.00
      Br13         Br  0.7982263  0.6661295  0.9525462    0.00000       Uiso       1.00
      Br14         Br  0.8328221  0.6260489  0.8394473    0.00000       Uiso       1.00
      Br15         Br  0.9514542  0.5475996  0.8339136    0.00000       Uiso       1.00
      Br16         Br  0.9168256  0.6606630  0.8740933    0.00000       Uiso       1.00
      C147          C  0.7501677  0.8749986  0.3748880    0.00000       Uiso       1.00
      C148          C  0.6452215  0.0511377  0.3440666    0.00000       Uiso       1.00
      C149          C  0.6578005  0.0431765  0.3545659    0.00000       Uiso       1.00
      C150          C  0.6572492  0.0586103  0.3627194    0.00000       Uiso       1.00
      C151          C  0.6445045  0.0817306  0.3601516    0.00000       Uiso       1.00
      C152          C  0.6321263  0.0896919  0.3494093    0.00000       Uiso       1.00
      C153          C  0.6325508  0.0742634  0.3413878    0.00000       Uiso       1.00
       H81          H  0.6230226  0.0800258  0.3331487    0.00000       Uiso       1.00
       H82          H  0.6666876  0.0527474  0.3710800    0.00000       Uiso       1.00
       H83          H  0.6443752  0.0933348  0.3665441    0.00000       Uiso       1.00
      C154          C  0.7297363  0.7827066  0.3193930    0.00000       Uiso       1.00
      C155          C  0.7192354  0.7701313  0.3345025    0.00000       Uiso       1.00
      C156          C  0.7378764  0.7821620  0.2963634    0.00000       Uiso       1.00
      C157          C  0.7352936  0.7694278  0.2885545    0.00000       Uiso       1.00
      C158          C  0.7245495  0.7570534  0.3037064    0.00000       Uiso       1.00
      C159          C  0.7165416  0.7574711  0.3267253    0.00000       Uiso       1.00
       H84          H  0.7083015  0.7479456  0.3387244    0.00000       Uiso       1.00
       H85          H  0.7462381  0.7915977  0.2844330    0.00000       Uiso       1.00
       H86          H  0.7416758  0.7693037  0.2706921    0.00000       Uiso       1.00
      C160          C  0.6947638  0.8545267  0.5430470    0.00000       Uiso       1.00
      C161          C  0.7098893  0.8440201  0.5509988    0.00000       Uiso       1.00
      C162          C  0.6717310  0.8626667  0.5584881    0.00000       Uiso       1.00
      C163          C  0.6639346  0.8600782  0.5816060    0.00000       Uiso       1.00
      C164          C  0.6791024  0.8493286  0.5895576    0.00000       Uiso       1.00
      C165          C  0.7021247  0.8413207  0.5741219    0.00000       Uiso       1.00
       H87          H  0.7141359  0.8330763  0.5798769    0.00000       Uiso       1.00
       H88          H  0.6597884  0.8710326  0.5526328    0.00000       Uiso       1.00
       H89          H  0.6460693  0.8664606  0.5932161    0.00000       Uiso       1.00
      C166          C  0.9183707  0.8195844  0.2825461    0.00000       Uiso       1.00
      C167          C  0.9263251  0.8347051  0.2699842    0.00000       Uiso       1.00
      C168          C  0.9338149  0.7965553  0.2819811    0.00000       Uiso       1.00
      C169          C  0.9569387  0.7887576  0.2692398    0.00000       Uiso       1.00
      C170          C  0.9648933  0.8039203  0.2568788    0.00000       Uiso       1.00
      C171          C  0.9494544  0.8269390  0.2573170    0.00000       Uiso       1.00
       H90          H  0.9552113  0.8389465  0.2478021    0.00000       Uiso       1.00
       H91          H  0.9279574  0.7846165  0.2914062    0.00000       Uiso       1.00
       H92          H  0.9685510  0.7708951  0.2690998    0.00000       Uiso       1.00
      Br17         Br  0.7085989  0.7698036  0.3655801    0.00000       Uiso       1.00
      Br18         Br  0.6449027  0.0310241  0.3334121    0.00000       Uiso       1.00
      Br19         Br  0.9061976  0.8657832  0.2696843    0.00000       Uiso       1.00
      Br20         Br  0.7409722  0.8333833  0.5308756    0.00000       Uiso       1.00
      C172          C  0.6766498  0.9810418  0.3647013    0.00000       Uiso       1.00
      C173          C  0.6970480  0.9720923  0.3634421    0.00000       Uiso       1.00
      C174          C  0.7044216  0.9867852  0.3590687    0.00000       Uiso       1.00
      C175          C  0.6918990  0.0096277  0.3559700    0.00000       Uiso       1.00
      C176          C  0.6713658  0.0186350  0.3574515    0.00000       Uiso       1.00
      C177          C  0.6639417  0.0039477  0.3618738    0.00000       Uiso       1.00
       H93          H  0.6706609  0.9702062  0.3676270    0.00000       Uiso       1.00
       H94          H  0.6481613  0.0101582  0.3634141    0.00000       Uiso       1.00
       H95          H  0.7198372  0.9806088  0.3582865    0.00000       Uiso       1.00
       H96          H  0.6984528  0.0202071  0.3521930    0.00000       Uiso       1.00
      C178          C  0.7386584  0.8219227  0.3423562    0.00000       Uiso       1.00
      C179          C  0.7399189  0.8015286  0.3525314    0.00000       Uiso       1.00
      C180          C  0.7342684  0.8293030  0.3246763    0.00000       Uiso       1.00
      C181          C  0.7311550  0.8167900  0.3174547    0.00000       Uiso       1.00
      C182          C  0.7326378  0.7962609  0.3274847    0.00000       Uiso       1.00
      C183          C  0.7370768  0.7888302  0.3451604    0.00000       Uiso       1.00
       H97          H  0.7428570  0.7955348  0.3664200    0.00000       Uiso       1.00
       H98          H  0.7386186  0.7730526  0.3531788    0.00000       Uiso       1.00
       H99          H  0.7334847  0.8447158  0.3162304    0.00000       Uiso       1.00
      H100          H  0.7273656  0.8233485  0.3041091    0.00000       Uiso       1.00
      C184          C  0.7176883  0.8634659  0.4719710    0.00000       Uiso       1.00
      C185          C  0.7278813  0.8647171  0.4809214    0.00000       Uiso       1.00
      C186          C  0.7000034  0.8590795  0.4866601    0.00000       Uiso       1.00
      C187          C  0.6927944  0.8559607  0.5094998    0.00000       Uiso       1.00
      C188          C  0.7028422  0.8574341  0.5185083    0.00000       Uiso       1.00
      C189          C  0.7205229  0.8618693  0.5038248    0.00000       Uiso       1.00
      H101          H  0.7417741  0.8676523  0.4700885    0.00000       Uiso       1.00
      H102          H  0.7285546  0.8634040  0.5100366    0.00000       Uiso       1.00
      H103          H  0.6915441  0.8583029  0.4804830    0.00000       Uiso       1.00
      H104          H  0.6794445  0.8521743  0.5200759    0.00000       Uiso       1.00
      C190          C  0.8472762  0.8425132  0.3217829    0.00000       Uiso       1.00
      C191          C  0.8562209  0.8527068  0.3013980    0.00000       Uiso       1.00
      C192          C  0.8619771  0.8248263  0.3291471    0.00000       Uiso       1.00
      C193          C  0.8848229  0.8176157  0.3166277    0.00000       Uiso       1.00
      C194          C  0.8938256  0.8276643  0.2961077    0.00000       Uiso       1.00
      C195          C  0.8791302  0.8453470  0.2886930    0.00000       Uiso       1.00
      H105          H  0.8453790  0.8666010  0.2954168    0.00000       Uiso       1.00
      H106          H  0.8853370  0.8533795  0.2729226    0.00000       Uiso       1.00
      H107          H  0.8558045  0.8163666  0.3445522    0.00000       Uiso       1.00
      H108          H  0.8954085  0.8042641  0.3231741    0.00000       Uiso       1.00
      C196          C  0.7131827  0.9119936  0.3839867    0.00000       Uiso       1.00
      C197          C  0.7367272  0.9006230  0.3715216    0.00000       Uiso       1.00
      C198          C  0.7468075  0.9137308  0.3573005    0.00000       Uiso       1.00
      C199          C  0.7340431  0.9365937  0.3545712    0.00000       Uiso       1.00
      C200          C  0.7106444  0.9475711  0.3664911    0.00000       Uiso       1.00
      C201          C  0.7004078  0.9349297  0.3814637    0.00000       Uiso       1.00
      H109          H  0.7046545  0.9028655  0.3956457    0.00000       Uiso       1.00
      H110          H  0.6824569  0.9428059  0.3915218    0.00000       Uiso       1.00
      H111          H  0.7646052  0.9067013  0.3481596    0.00000       Uiso       1.00
      C202          C  0.7467842  0.8615696  0.3660701    0.00000       Uiso       1.00
      C203          C  0.7592498  0.8380303  0.3657628    0.00000       Uiso       1.00
      C204          C  0.7325466  0.8716558  0.3571183    0.00000       Uiso       1.00
      C205          C  0.7298025  0.8589018  0.3497479    0.00000       Uiso       1.00
      C206          C  0.7417232  0.8355081  0.3502331    0.00000       Uiso       1.00
      C207          C  0.7567120  0.8252658  0.3581236    0.00000       Uiso       1.00
      H112          H  0.7709210  0.8294979  0.3717483    0.00000       Uiso       1.00
      H113          H  0.7667712  0.8073184  0.3581276    0.00000       Uiso       1.00
      H114          H  0.7234038  0.8894504  0.3555040    0.00000       Uiso       1.00
      C208          C  0.7413633  0.8716092  0.4005093    0.00000       Uiso       1.00
      C209          C  0.7410718  0.8840639  0.4118908    0.00000       Uiso       1.00
      C210          C  0.7324085  0.8573765  0.4136044    0.00000       Uiso       1.00
      C211          C  0.7250507  0.8546267  0.4364648    0.00000       Uiso       1.00
      C212          C  0.7255518  0.8665367  0.4474526    0.00000       Uiso       1.00
      C213          C  0.7334451  0.8815204  0.4348245    0.00000       Uiso       1.00
      H115          H  0.7470601  0.8957310  0.4027730    0.00000       Uiso       1.00
      H116          H  0.7334610  0.8915714  0.4427095    0.00000       Uiso       1.00
      H117          H  0.7307822  0.8482417  0.4065668    0.00000       Uiso       1.00
      C214          C  0.7757961  0.8661925  0.3614511    0.00000       Uiso       1.00
      C215          C  0.7871667  0.8659067  0.3379116    0.00000       Uiso       1.00
      C216          C  0.7889081  0.8572306  0.3715292    0.00000       Uiso       1.00
      C217          C  0.8117744  0.8498713  0.3587685    0.00000       Uiso       1.00
      C218          C  0.8227513  0.8503782  0.3353753    0.00000       Uiso       1.00
      C219          C  0.8101061  0.8582787  0.3251402    0.00000       Uiso       1.00
      H118          H  0.7780356  0.8719004  0.3293847    0.00000       Uiso       1.00
      H119          H  0.8179821  0.8582993  0.3071929    0.00000       Uiso       1.00
      H120          H  0.7818794  0.8555999  0.3893223    0.00000       Uiso       1.00
      Br21         Br  0.7090801  0.8740923  0.3393354    0.00000       Uiso       1.00
      Br22         Br  0.7492264  0.9525450  0.3338703    0.00000       Uiso       1.00
      Br23         Br  0.8277306  0.8394439  0.3739496    0.00000       Uiso       1.00
      Br24         Br  0.7146333  0.8339117  0.4523976    0.00000       Uiso       1.00
      C220          C  0.3749428  0.3748896  0.1250002    0.00000       Uiso       1.00
      C221          C  0.3036896  0.2699867  0.1652920    0.00000       Uiso       1.00
      C222          C  0.2990820  0.2825487  0.1804128    0.00000       Uiso       1.00
      C223          C  0.2842029  0.2819838  0.2034418    0.00000       Uiso       1.00
      C224          C  0.2738203  0.2692427  0.2112394    0.00000       Uiso       1.00
      C225          C  0.2782270  0.2568816  0.1960764    0.00000       Uiso       1.00
      C226          C  0.2932277  0.2573197  0.1730579    0.00000       Uiso       1.00
      H121          H  0.2969856  0.2478047  0.1610503    0.00000       Uiso       1.00
      H122          H  0.2806352  0.2914090  0.2153807    0.00000       Uiso       1.00
      H123          H  0.2623481  0.2691028  0.2291017    0.00000       Uiso       1.00
      C227          C  0.4876315  0.3545679  0.9568231    0.00000       Uiso       1.00
      C228          C  0.5107098  0.3440683  0.9488620    0.00000       Uiso       1.00
      C229          C  0.4800292  0.3627214  0.9413894    0.00000       Uiso       1.00
      C230          C  0.4953417  0.3601534  0.9182692    0.00000       Uiso       1.00
      C231          C  0.5184624  0.3494108  0.9103079    0.00000       Uiso       1.00
      C232          C  0.5260594  0.3413893  0.9257363    0.00000       Uiso       1.00
      H124          H  0.5438268  0.3331500  0.9199740    0.00000       Uiso       1.00
      H125          H  0.4622301  0.3710822  0.9472522    0.00000       Uiso       1.00
      H126          H  0.4890784  0.3665460  0.9066648    0.00000       Uiso       1.00
      C233          C  0.4508696  0.3193940  0.2172922    0.00000       Uiso       1.00
      C234          C  0.4462609  0.3345036  0.2298676    0.00000       Uiso       1.00
      C235          C  0.4657592  0.2963644  0.2178366    0.00000       Uiso       1.00
      C236          C  0.4761510  0.2885554  0.2305708    0.00000       Uiso       1.00
      C237          C  0.4717430  0.3037073  0.2429454    0.00000       Uiso       1.00
      C238          C  0.4567319  0.3267263  0.2425278    0.00000       Uiso       1.00
      H127          H  0.4529728  0.3387254  0.2520534    0.00000       Uiso       1.00
      H128          H  0.4693280  0.2844339  0.2084009    0.00000       Uiso       1.00
      H129          H  0.4876312  0.2706929  0.2306949    0.00000       Uiso       1.00
      C239          C  0.2621865  0.5430496  0.1454731    0.00000       Uiso       1.00
      C240          C  0.2391091  0.5510015  0.1559796    0.00000       Uiso       1.00
      C241          C  0.2697782  0.5584905  0.1373334    0.00000       Uiso       1.00
      C242          C  0.2544565  0.5816085  0.1399219    0.00000       Uiso       1.00
      C243          C  0.2313370  0.5895604  0.1506714    0.00000       Uiso       1.00
      C244          C  0.2237505  0.5741248  0.1586791    0.00000       Uiso       1.00
      H130          H  0.2059842  0.5798799  0.1669234    0.00000       Uiso       1.00
      H131          H  0.2875762  0.5526350  0.1289675    0.00000       Uiso       1.00
      H132          H  0.2607118  0.5932184  0.1335398    0.00000       Uiso       1.00
      Br25         Br  0.5216832  0.3334137  0.9689755    0.00000       Uiso       1.00
      Br26         Br  0.3241172  0.2696865  0.1342141    0.00000       Uiso       1.00
      Br27         Br  0.2281496  0.5308785  0.1666161    0.00000       Uiso       1.00
      Br28         Br  0.4258195  0.3655813  0.2301954    0.00000       Uiso       1.00
      C245          C  0.3423801  0.3013999  0.1472911    0.00000       Uiso       1.00
      C246          C  0.3309398  0.3217849  0.1574847    0.00000       Uiso       1.00
      C247          C  0.3088744  0.3291495  0.1751714    0.00000       Uiso       1.00
      C248          C  0.2985481  0.3166302  0.1823818    0.00000       Uiso       1.00
      C249          C  0.3100656  0.2961101  0.1723332    0.00000       Uiso       1.00
      C250          C  0.3321758  0.2886950  0.1546507    0.00000       Uiso       1.00
      H133          H  0.3592033  0.2954184  0.1333971    0.00000       Uiso       1.00
      H134          H  0.3417395  0.2729245  0.1466181    0.00000       Uiso       1.00
      H135          H  0.2996416  0.3445548  0.1836312    0.00000       Uiso       1.00
      H136          H  0.2814160  0.3231770  0.1957332    0.00000       Uiso       1.00
      C251          C  0.4395089  0.3634426  0.0279068    0.00000       Uiso       1.00
      C252          C  0.4586477  0.3647018  0.0189575    0.00000       Uiso       1.00
      C253          C  0.4365087  0.3590690  0.0132139    0.00000       Uiso       1.00
      C254          C  0.4521288  0.3559722  0.9903717    0.00000       Uiso       1.00
      C255          C  0.4711804  0.3574536  0.9813645    0.00000       Uiso       1.00
      C256          C  0.4741821  0.3618761  0.9960518    0.00000       Uiso       1.00
      H137          H  0.4617109  0.3676276  0.0297931    0.00000       Uiso       1.00
      H138          H  0.4884222  0.3634163  0.9898414    0.00000       Uiso       1.00
      H139          H  0.4218754  0.3582868  0.0193903    0.00000       Uiso       1.00
      H140          H  0.4493522  0.3521951  0.9797922    0.00000       Uiso       1.00
      C257          C  0.4189841  0.3423575  0.1780761    0.00000       Uiso       1.00
      C258          C  0.4075483  0.3525329  0.1984702    0.00000       Uiso       1.00
      C259          C  0.4410541  0.3246773  0.1706958    0.00000       Uiso       1.00
      C260          C  0.4513892  0.3174555  0.1832088    0.00000       Uiso       1.00
      C261          C  0.4398763  0.3274858  0.2037379    0.00000       Uiso       1.00
      C262          C  0.4177616  0.3451618  0.2111686    0.00000       Uiso       1.00
      H141          H  0.3907216  0.3664217  0.2044639    0.00000       Uiso       1.00
      H142          H  0.4082013  0.3531803  0.2269462    0.00000       Uiso       1.00
      H143          H  0.4502837  0.3162312  0.1552830    0.00000       Uiso       1.00
      H144          H  0.4685243  0.3041098  0.1766503    0.00000       Uiso       1.00
      C263          C  0.3103387  0.4719732  0.1365333    0.00000       Uiso       1.00
      C264          C  0.2911950  0.4809237  0.1352823    0.00000       Uiso       1.00
      C265          C  0.3133344  0.4866622  0.1409196    0.00000       Uiso       1.00
      C266          C  0.2977037  0.5095020  0.1440387    0.00000       Uiso       1.00
      C267          C  0.2786472  0.5185106  0.1425655    0.00000       Uiso       1.00
      C268          C  0.2756499  0.5038272  0.1381302    0.00000       Uiso       1.00
      H145          H  0.2881353  0.4700907  0.1323471    0.00000       Uiso       1.00
      H146          H  0.2614062  0.5100390  0.1365957    0.00000       Uiso       1.00
      H147          H  0.3279710  0.4804851  0.1416961    0.00000       Uiso       1.00
      H148          H  0.3004774  0.5200781  0.1478250    0.00000       Uiso       1.00
      C269          C  0.3749204  0.3379132  0.1340923    0.00000       Uiso       1.00
      C270          C  0.3627514  0.3614528  0.1338062    0.00000       Uiso       1.00
      C271          C  0.3395613  0.3715310  0.1427675    0.00000       Uiso       1.00
      C272          C  0.3294557  0.3587705  0.1501264    0.00000       Uiso       1.00
      C273          C  0.3418721  0.3353772  0.1496200    0.00000       Uiso       1.00
      C274          C  0.3647524  0.3251419  0.1417201    0.00000       Uiso       1.00
      H149          H  0.3925784  0.3293861  0.1280989    0.00000       Uiso       1.00
      H150          H  0.3748237  0.3071945  0.1416998    0.00000       Uiso       1.00
      H151          H  0.3287968  0.3893242  0.1443980    0.00000       Uiso       1.00
      C275          C  0.3917500  0.3715228  0.0993759    0.00000       Uiso       1.00
      C276          C  0.4028291  0.3839878  0.0880054    0.00000       Uiso       1.00
      C277          C  0.3958911  0.3573014  0.0862681    0.00000       Uiso       1.00
      C278          C  0.4113849  0.3545718  0.0634052    0.00000       Uiso       1.00
      C279          C  0.4228634  0.3664918  0.0524280    0.00000       Uiso       1.00
      C280          C  0.4181271  0.3814646  0.0650695    0.00000       Uiso       1.00
      H152          H  0.3996981  0.3956470  0.0971337    0.00000       Uiso       1.00
      H153          H  0.4260198  0.3915227  0.0571934    0.00000       Uiso       1.00
      H154          H  0.3872345  0.3481603  0.0932975    0.00000       Uiso       1.00
      C281          C  0.3871443  0.3660716  0.1384291    0.00000       Uiso       1.00
      C282          C  0.3749859  0.3657648  0.1619684    0.00000       Uiso       1.00
      C283          C  0.4103338  0.3571193  0.1283430    0.00000       Uiso       1.00
      C284          C  0.4204484  0.3497489  0.1410971    0.00000       Uiso       1.00
      C285          C  0.4080422  0.3502346  0.1644907    0.00000       Uiso       1.00
      C286          C  0.3851630  0.3581255  0.1747329    0.00000       Uiso       1.00
      H155          H  0.3573290  0.3717507  0.1705007    0.00000       Uiso       1.00
      H156          H  0.3750995  0.3581300  0.1926803    0.00000       Uiso       1.00
      H157          H  0.4210910  0.3555047  0.1105485    0.00000       Uiso       1.00
      C287          C  0.3581258  0.4005110  0.1283897    0.00000       Uiso       1.00
      C288          C  0.3470355  0.4118925  0.1159352    0.00000       Uiso       1.00
      C289          C  0.3539859  0.4136063  0.1426221    0.00000       Uiso       1.00
      C290          C  0.3384832  0.4364668  0.1453719    0.00000       Uiso       1.00
      C291          C  0.3269938  0.4474546  0.1334623    0.00000       Uiso       1.00
      C292          C  0.3317284  0.4348263  0.1184788    0.00000       Uiso       1.00
      H158          H  0.3501649  0.4027745  0.1042682    0.00000       Uiso       1.00
      H159          H  0.3238272  0.4427112  0.1084281    0.00000       Uiso       1.00
      H160          H  0.3626502  0.4065687  0.1517564    0.00000       Uiso       1.00
      Br29         Br  0.4169029  0.3338706  0.0474539    0.00000       Uiso       1.00
      Br30         Br  0.2983185  0.3739519  0.1605530    0.00000       Uiso       1.00
      Br31         Br  0.3329683  0.4523998  0.1660864    0.00000       Uiso       1.00
      Br32         Br  0.4515835  0.3393356  0.1259067    0.00000       Uiso       1.00
      C293          C  0.0000572  0.1249966  0.6251115    0.00000       Uiso       1.00
      C294          C  0.0404274  0.9488580  0.6559330    0.00000       Uiso       1.00
      C295          C  0.0555447  0.9568191  0.6454336    0.00000       Uiso       1.00
      C296          C  0.0785808  0.9413850  0.6372800    0.00000       Uiso       1.00
      C297          C  0.0863887  0.9182647  0.6398479    0.00000       Uiso       1.00
      C298          C  0.0712292  0.9103037  0.6505903    0.00000       Uiso       1.00
      C299          C  0.0482036  0.9257324  0.6586118    0.00000       Uiso       1.00
      H161          H  0.0361985  0.9199702  0.6668509    0.00000       Uiso       1.00
      H162          H  0.0905170  0.9472477  0.6289194    0.00000       Uiso       1.00
      H163          H  0.1042562  0.9066604  0.6334553    0.00000       Uiso       1.00
      C300          C  0.8318376  0.2172903  0.6806067    0.00000       Uiso       1.00
      C301          C  0.8238709  0.2298657  0.6654973    0.00000       Uiso       1.00
      C302          C  0.8164036  0.2178349  0.7036363    0.00000       Uiso       1.00
      C303          C  0.7932775  0.2305693  0.7114452    0.00000       Uiso       1.00
      C304          C  0.7853107  0.2429440  0.6962934    0.00000       Uiso       1.00
      C305          C  0.8007395  0.2425262  0.6732745    0.00000       Uiso       1.00
      H164          H  0.7949729  0.2520518  0.6612754    0.00000       Uiso       1.00
      H165          H  0.8222706  0.2083991  0.7155666    0.00000       Uiso       1.00
      H166          H  0.7816731  0.2306935  0.7293076    0.00000       Uiso       1.00
      C306          C  0.0923409  0.1454682  0.4569524    0.00000       Uiso       1.00
      C307          C  0.1049117  0.1559745  0.4490006    0.00000       Uiso       1.00
      C308          C  0.0928891  0.1373284  0.4415114    0.00000       Uiso       1.00
      C309          C  0.1056222  0.1399168  0.4183934    0.00000       Uiso       1.00
      C310          C  0.1179921  0.1506662  0.4104418    0.00000       Uiso       1.00
      C311          C  0.1175708  0.1586739  0.4258775    0.00000       Uiso       1.00
      H167          H  0.1270929  0.1669181  0.4201225    0.00000       Uiso       1.00
      H168          H  0.0834570  0.1289627  0.4473666    0.00000       Uiso       1.00
      H169          H  0.1057492  0.1335347  0.4067835    0.00000       Uiso       1.00
      C312          C  0.0205051  0.1804090  0.7174531    0.00000       Uiso       1.00
      C313          C  0.0310184  0.1652883  0.7300150    0.00000       Uiso       1.00
      C314          C  0.0123550  0.2034381  0.7180182    0.00000       Uiso       1.00
      C315          C  0.0149400  0.2112357  0.7307594    0.00000       Uiso       1.00
      C316          C  0.0256964  0.1960727  0.7431204    0.00000       Uiso       1.00
      C317          C  0.0337144  0.1730541  0.7426822    0.00000       Uiso       1.00
      H170          H  0.0419641  0.1610464  0.7521970    0.00000       Uiso       1.00
      H171          H  0.0039838  0.2153771  0.7085931    0.00000       Uiso       1.00
      H172          H  0.0085499  0.2290980  0.7308995    0.00000       Uiso       1.00
      Br33         Br  0.8439845  0.2301933  0.6344196    0.00000       Uiso       1.00
      Br34         Br  0.0093403  0.9689719  0.6665875    0.00000       Uiso       1.00
      Br35         Br  0.0416688  0.1342103  0.7303150    0.00000       Uiso       1.00
      Br36         Br  0.1052347  0.1666110  0.4691238    0.00000       Uiso       1.00
      C318          C  0.0223957  0.0189539  0.6352983    0.00000       Uiso       1.00
      C319          C  0.0325854  0.0279030  0.6365574    0.00000       Uiso       1.00
      C320          C  0.0502787  0.0132099  0.6409308    0.00000       Uiso       1.00
      C321          C  0.0574986  0.9903675  0.6440295    0.00000       Uiso       1.00
      C322          C  0.0474541  0.9813605  0.6425480    0.00000       Uiso       1.00
      C323          C  0.0297650  0.9960480  0.6381257    0.00000       Uiso       1.00
      H173          H  0.0084968  0.0297896  0.6323726    0.00000       Uiso       1.00
      H174          H  0.0217352  0.9898377  0.6365855    0.00000       Uiso       1.00
      H175          H  0.0587357  0.0193862  0.6417130    0.00000       Uiso       1.00
      H176          H  0.0708549  0.9797879  0.6478065    0.00000       Uiso       1.00
      C324          C  0.9029395  0.1780735  0.6576434    0.00000       Uiso       1.00
      C325          C  0.8939812  0.1984677  0.6474682    0.00000       Uiso       1.00
      C326          C  0.8882498  0.1706934  0.6753234    0.00000       Uiso       1.00
      C327          C  0.8654016  0.1832066  0.6825450    0.00000       Uiso       1.00
      C328          C  0.8563852  0.2037358  0.6725150    0.00000       Uiso       1.00
      C329          C  0.8710694  0.2111663  0.6548392    0.00000       Uiso       1.00
      H177          H  0.9048141  0.2044613  0.6335797    0.00000       Uiso       1.00
      H178          H  0.8648520  0.2269439  0.6468209    0.00000       Uiso       1.00
      H179          H  0.8944331  0.1552804  0.6837692    0.00000       Uiso       1.00
      H180          H  0.8548250  0.1766482  0.6958905    0.00000       Uiso       1.00
      C330          C  0.0531285  0.1365291  0.5280284    0.00000       Uiso       1.00
      C331          C  0.0735232  0.1352776  0.5190780    0.00000       Uiso       1.00
      C332          C  0.0457463  0.1409157  0.5133393    0.00000       Uiso       1.00
      C333          C  0.0582580  0.1440345  0.4904997    0.00000       Uiso       1.00
      C334          C  0.0787878  0.1425608  0.4814912    0.00000       Uiso       1.00
      C335          C  0.0862205  0.1381253  0.4961746    0.00000       Uiso       1.00
      H181          H  0.0795183  0.1323422  0.5299109    0.00000       Uiso       1.00
      H182          H  0.1019988  0.1365905  0.4899628    0.00000       Uiso       1.00
      H183          H  0.0303330  0.1416925  0.5195165    0.00000       Uiso       1.00
      H184          H  0.0516978  0.1478210  0.4799236    0.00000       Uiso       1.00
      C336          C  0.0115757  0.1574810  0.6782165    0.00000       Uiso       1.00
      C337          C  0.0103291  0.1472873  0.6986014    0.00000       Uiso       1.00
      C338          C  0.0159541  0.1751677  0.6708522    0.00000       Uiso       1.00
      C339          C  0.0190700  0.1823781  0.6833716    0.00000       Uiso       1.00
      C340          C  0.0176012  0.1723295  0.7038916    0.00000       Uiso       1.00
      C341          C  0.0131738  0.1546469  0.7113063    0.00000       Uiso       1.00
      H185          H  0.0074002  0.1333933  0.7045826    0.00000       Uiso       1.00
      H186          H  0.0116428  0.1466144  0.7270766    0.00000       Uiso       1.00
      H187          H  0.0167269  0.1836276  0.6554471    0.00000       Uiso       1.00
      H188          H  0.0228504  0.1957296  0.6768252    0.00000       Uiso       1.00
      C342          C  0.0091660  0.0880018  0.6160129    0.00000       Uiso       1.00
      C343          C  0.0088747  0.0993722  0.6284779    0.00000       Uiso       1.00
      C344          C  0.0178418  0.0862642  0.6426989    0.00000       Uiso       1.00
      C345          C  0.0252111  0.0634014  0.6454282    0.00000       Uiso       1.00
      C346          C  0.0247096  0.0524242  0.6335084    0.00000       Uiso       1.00
      C347          C  0.0168040  0.0650658  0.6185359    0.00000       Uiso       1.00
      H189          H  0.0031685  0.0971301  0.6043538    0.00000       Uiso       1.00
      H190          H  0.0167873  0.0571898  0.6084778    0.00000       Uiso       1.00
      H191          H  0.0194692  0.0932936  0.6518398    0.00000       Uiso       1.00
      C348          C  0.9744267  0.1384258  0.6339294    0.00000       Uiso       1.00
      C349          C  0.9630457  0.1619651  0.6342368    0.00000       Uiso       1.00
      C350          C  0.9613233  0.1283399  0.6428813    0.00000       Uiso       1.00
      C351          C  0.9384546  0.1410941  0.6502517    0.00000       Uiso       1.00
      C352          C  0.9274669  0.1644878  0.6497664    0.00000       Uiso       1.00
      C353          C  0.9401039  0.1747299  0.6418760    0.00000       Uiso       1.00
      H192          H  0.9721701  0.1704973  0.6282511    0.00000       Uiso       1.00
      H193          H  0.9322197  0.1926773  0.6418719    0.00000       Uiso       1.00
      H194          H  0.9683608  0.1105453  0.6444955    0.00000       Uiso       1.00
      C354          C  0.0134848  0.1283860  0.5994902    0.00000       Uiso       1.00
      C355          C  0.0370297  0.1159310  0.5881086    0.00000       Uiso       1.00
      C356          C  0.0033923  0.1426189  0.5863950    0.00000       Uiso       1.00
      C357          C  0.0161452  0.1453686  0.5635347    0.00000       Uiso       1.00
      C358          C  0.0395443  0.1334583  0.5525469    0.00000       Uiso       1.00
      C359          C  0.0497933  0.1184745  0.5651749    0.00000       Uiso       1.00
      H195          H  0.0455673  0.1042638  0.5972264    0.00000       Uiso       1.00
      H196          H  0.0677452  0.1084233  0.5572900    0.00000       Uiso       1.00
      H197          H  0.9855935  0.1517537  0.5934327    0.00000       Uiso       1.00
      C360          C  0.0034428  0.1338025  0.6385484    0.00000       Uiso       1.00
      C361          C  0.9909879  0.1340883  0.6620878    0.00000       Uiso       1.00
      C362          C  0.0176712  0.1427641  0.6284702    0.00000       Uiso       1.00
      C363          C  0.0204177  0.1501231  0.6412308    0.00000       Uiso       1.00
      C364          C  0.0085082  0.1496162  0.6646240    0.00000       Uiso       1.00
      C365          C  0.9935281  0.1417160  0.6748592    0.00000       Uiso       1.00
      H198          H  0.9793236  0.1280947  0.6706147    0.00000       Uiso       1.00
      H199          H  0.9834773  0.1416954  0.6928065    0.00000       Uiso       1.00
      H200          H  0.0268049  0.1443948  0.6106771    0.00000       Uiso       1.00
      Br37         Br  0.9225100  0.1259040  0.6606643    0.00000       Uiso       1.00
      Br38         Br  0.0356448  0.0474499  0.6661292    0.00000       Uiso       1.00
      Br39         Br  0.0411277  0.1605502  0.6260498    0.00000       Uiso       1.00
      Br40         Br  0.0009456  0.1660839  0.5476018    0.00000       Uiso       1.00
      C366          C  0.2500011  0.9999954  0.9995520    0.00000       Uiso       1.00
      C367          C  0.4261448  0.9288152  0.8637339    0.00000       Uiso       1.00
      C368          C  0.4181951  0.9241929  0.8868034    0.00000       Uiso       1.00
      C369          C  0.4336429  0.9093067  0.8943887    0.00000       Uiso       1.00
      C370          C  0.4567656  0.8989319  0.8790681    0.00000       Uiso       1.00
      C371          C  0.4647153  0.9033536  0.8559563    0.00000       Uiso       1.00
      C372          C  0.4492729  0.9183612  0.8483764    0.00000       Uiso       1.00
      H201          H  0.4550262  0.9221307  0.8306161    0.00000       Uiso       1.00
      H202          H  0.4277891  0.9057274  0.9121807    0.00000       Uiso       1.00
      H203          H  0.4683807  0.8874540  0.8853182    0.00000       Uiso       1.00
      C373          C  0.1576092  0.1127443  0.9237514    0.00000       Uiso       1.00
      C374          C  0.1450370  0.1358139  0.9283738    0.00000       Uiso       1.00
      C375          C  0.1570476  0.1051590  0.9088653    0.00000       Uiso       1.00
      C376          C  0.1442995  0.1204796  0.8984907    0.00000       Uiso       1.00
      C377          C  0.1319280  0.1435916  0.9029126    0.00000       Uiso       1.00
      C378          C  0.1323628  0.1511715  0.9179201    0.00000       Uiso       1.00
      H204          H  0.1228400  0.1689319  0.9216896    0.00000       Uiso       1.00
      H205          H  0.1664807  0.0873669  0.9052859    0.00000       Uiso       1.00
      H206          H  0.1441623  0.1142295  0.8870129    0.00000       Uiso       1.00
      C379          C  0.2296471  0.0757946  0.1123001    0.00000       Uiso       1.00
      C380          C  0.2191497  0.0711722  0.1353695    0.00000       Uiso       1.00
      C381          C  0.2377940  0.0906806  0.1047148    0.00000       Uiso       1.00
      C382          C  0.2352215  0.1010552  0.1200353    0.00000       Uiso       1.00
      C383          C  0.2244810  0.0966335  0.1431472    0.00000       Uiso       1.00
      C384          C  0.2164662  0.0816261  0.1507271    0.00000       Uiso       1.00
      H207          H  0.2082286  0.0778566  0.1684874    0.00000       Uiso       1.00
      H208          H  0.2461531  0.0942598  0.0869227    0.00000       Uiso       1.00
      H209          H  0.2416089  0.1125329  0.1137852    0.00000       Uiso       1.00
      C385          C  0.1945579  0.8872459  0.0753526    0.00000       Uiso       1.00
      C386          C  0.2096778  0.8641763  0.0707301    0.00000       Uiso       1.00
      C387          C  0.1715249  0.8948314  0.0902387    0.00000       Uiso       1.00
      C388          C  0.1637228  0.8795109  0.1006132    0.00000       Uiso       1.00
      C389          C  0.1788850  0.8563989  0.0961914    0.00000       Uiso       1.00
      C390          C  0.2019075  0.8488188  0.0811838    0.00000       Uiso       1.00
      H210          H  0.2139146  0.8310584  0.0774143    0.00000       Uiso       1.00
      H211          H  0.1595864  0.9126235  0.0938180    0.00000       Uiso       1.00
      H212          H  0.1458574  0.8857613  0.1120911    0.00000       Uiso       1.00
      Br41         Br  0.1447320  0.1467641  0.9488110    0.00000       Uiso       1.00
      Br42         Br  0.4060125  0.9492526  0.8527838    0.00000       Uiso       1.00
      Br43         Br  0.2407605  0.8532257  0.0502928    0.00000       Uiso       1.00
      Br44         Br  0.2085043  0.0507352  0.1463198    0.00000       Uiso       1.00
      C391          C  0.3560497  0.9674737  0.9158230    0.00000       Uiso       1.00
      C392          C  0.3471045  0.9560256  0.9349522    0.00000       Uiso       1.00
      C393          C  0.3618035  0.9339609  0.9379346    0.00000       Uiso       1.00
      C394          C  0.3846478  0.9236428  0.9223049    0.00000       Uiso       1.00
      C395          C  0.3936512  0.9351679  0.9032629    0.00000       Uiso       1.00
      C396          C  0.3789579  0.9572775  0.9002790    0.00000       Uiso       1.00
      H213          H  0.3452092  0.9842970  0.9127735    0.00000       Uiso       1.00
      H214          H  0.3851654  0.9668467  0.8860467    0.00000       Uiso       1.00
      H215          H  0.3556305  0.9247221  0.9525601    0.00000       Uiso       1.00
      H216          H  0.3952317  0.9065112  0.9250680    0.00000       Uiso       1.00
      C397          C  0.1968676  0.0645955  0.9555832    0.00000       Uiso       1.00
      C398          C  0.1764739  0.0837247  0.9670315    0.00000       Uiso       1.00
      C399          C  0.2042335  0.0616130  0.9335185    0.00000       Uiso       1.00
      C400          C  0.1917069  0.0772427  0.9232007    0.00000       Uiso       1.00
      C401          C  0.1711782  0.0962848  0.9347261    0.00000       Uiso       1.00
      C402          C  0.1637619  0.0992687  0.9568356    0.00000       Uiso       1.00
      H217          H  0.1704911  0.0867742  0.9838548    0.00000       Uiso       1.00
      H218          H  0.1479850  0.1135011  0.9664050    0.00000       Uiso       1.00
      H219          H  0.2196454  0.0469875  0.9242796    0.00000       Uiso       1.00
      H220          H  0.1982548  0.0744796  0.9060692    0.00000       Uiso       1.00
      C403          C  0.2385374  0.0439625  0.0641516    0.00000       Uiso       1.00
      C404          C  0.2398018  0.0325142  0.0832807    0.00000       Uiso       1.00
      C405          C  0.2341541  0.0660272  0.0611691    0.00000       Uiso       1.00
      C406          C  0.2310509  0.0763450  0.0767987    0.00000       Uiso       1.00
      C407          C  0.2325376  0.0648198  0.0958407    0.00000       Uiso       1.00
      C408          C  0.2369699  0.0427103  0.0988246    0.00000       Uiso       1.00
      H221          H  0.2427350  0.0156911  0.0863302    0.00000       Uiso       1.00
      H222          H  0.2385144  0.0331410  0.1130568    0.00000       Uiso       1.00
      H223          H  0.2333678  0.0752660  0.0465437    0.00000       Uiso       1.00
      H224          H  0.2272663  0.0934766  0.0740356    0.00000       Uiso       1.00
      C409          C  0.2174997  0.9353942  0.0435205    0.00000       Uiso       1.00
      C410          C  0.2276838  0.9162648  0.0320724    0.00000       Uiso       1.00
      C411          C  0.1998180  0.9383770  0.0655852    0.00000       Uiso       1.00
      C412          C  0.1926034  0.9227473  0.0759030    0.00000       Uiso       1.00
      C413          C  0.2026423  0.9037052  0.0643778    0.00000       Uiso       1.00
      C414          C  0.2203198  0.9007210  0.0422684    0.00000       Uiso       1.00
      H225          H  0.2415740  0.9132151  0.0152492    0.00000       Uiso       1.00
      H226          H  0.2283447  0.8864886  0.0326991    0.00000       Uiso       1.00
      H227          H  0.1913653  0.9530026  0.0748240    0.00000       Uiso       1.00
      H228          H  0.1792564  0.9255107  0.0930345    0.00000       Uiso       1.00
      C415          C  0.2870042  0.9999809  0.9716617    0.00000       Uiso       1.00
      C416          C  0.2756281  0.9878128  0.9827356    0.00000       Uiso       1.00
      C417          C  0.2887338  0.9646308  0.9785804    0.00000       Uiso       1.00
      C418          C  0.3115988  0.9545333  0.9630789    0.00000       Uiso       1.00
      C419          C  0.3225811  0.9669493  0.9516060    0.00000       Uiso       1.00
      C420          C  0.3099426  0.9898208  0.9563559    0.00000       Uiso       1.00
      H229          H  0.2778790  0.0176322  0.9748031    0.00000       Uiso       1.00
      H230          H  0.3178231  0.9998910  0.9484676    0.00000       Uiso       1.00
      H231          H  0.2817009  0.9538667  0.9872316    0.00000       Uiso       1.00
      C421          C  0.2365573  0.0168118  0.9873695    0.00000       Uiso       1.00
      C422          C  0.2130128  0.0278858  0.9995378    0.00000       Uiso       1.00
      C423          C  0.2466337  0.0209671  0.9641879    0.00000       Uiso       1.00
      C424          C  0.2338661  0.0364687  0.9540905    0.00000       Uiso       1.00
      C425          C  0.2104676  0.0479416  0.9665066    0.00000       Uiso       1.00
      C426          C  0.2002345  0.0431917  0.9893779    0.00000       Uiso       1.00
      H232          H  0.2044890  0.0247425  0.0171889    0.00000       Uiso       1.00
      H233          H  0.1822835  0.0510800  0.9994482    0.00000       Uiso       1.00
      H234          H  0.2644307  0.0123160  0.9534237    0.00000       Uiso       1.00
      C427          C  0.2466314  0.0121759  0.0163682    0.00000       Uiso       1.00
      C428          C  0.2591018  0.0000075  0.0274422    0.00000       Uiso       1.00
      C429          C  0.2323999  0.0353578  0.0205234    0.00000       Uiso       1.00
      C430          C  0.2296659  0.0454552  0.0360249    0.00000       Uiso       1.00
      C431          C  0.2415913  0.0330390  0.0474978    0.00000       Uiso       1.00
      C432          C  0.2565742  0.0101675  0.0427480    0.00000       Uiso       1.00
      H235          H  0.2707681  0.9823561  0.0243008    0.00000       Uiso       1.00
      H236          H  0.2666368  0.0000970  0.0506363    0.00000       Uiso       1.00
      H237          H  0.2232540  0.0461220  0.0118723    0.00000       Uiso       1.00
      C433          C  0.2411924  0.9831773  0.0117341    0.00000       Uiso       1.00
      C434          C  0.2408890  0.9721048  0.9995659    0.00000       Uiso       1.00
      C435          C  0.2322416  0.9790226  0.0349160    0.00000       Uiso       1.00
      C436          C  0.2248780  0.9635213  0.0450133    0.00000       Uiso       1.00
      C437          C  0.2253692  0.9520479  0.0325971    0.00000       Uiso       1.00
      C438          C  0.2332584  0.9567972  0.0097256    0.00000       Uiso       1.00
      H238          H  0.2468738  0.9752459  0.9819145    0.00000       Uiso       1.00
      H239          H  0.2332648  0.9489104  0.9996554    0.00000       Uiso       1.00
      H240          H  0.2306227  0.9876742  0.0456802    0.00000       Uiso       1.00
      Br45         Br  0.2490447  0.0420051  0.9229653    0.00000       Uiso       1.00
      Br46         Br  0.3275456  0.9234079  0.9575427    0.00000       Uiso       1.00
      Br47         Br  0.2144666  0.9579859  0.0761388    0.00000       Uiso       1.00
      Br48         Br  0.2089509  0.0765807  0.0415612    0.00000       Uiso       1.00
      C439          C  0.6517216  0.6204585  0.3082201    0.00000       Uiso       1.00
      C440          C  0.6641058  0.6253577  0.2860297    0.00000       Uiso       1.00
      C441          C  0.6664800  0.6187198  0.2684042    0.00000       Uiso       1.00
      C442          C  0.6797643  0.6229377  0.2463407    0.00000       Uiso       1.00
      C443          C  0.6921761  0.6325928  0.2412641    0.00000       Uiso       1.00
      C444          C  0.6898154  0.6389136  0.2591949    0.00000       Uiso       1.00
      C445          C  0.6746280  0.6370885  0.2815166    0.00000       Uiso       1.00
        O1          O  0.6412395  0.6083213  0.3154636    0.00000       Uiso       1.00
      H241          H  0.7008227  0.6440494  0.2558320    0.00000       Uiso       1.00
      C446          C  0.7103235  0.7229968  0.2944372    0.00000       Uiso       1.00
      C447          C  0.7005218  0.7106184  0.2993462    0.00000       Uiso       1.00
      C448          C  0.6853270  0.7082581  0.3212533    0.00000       Uiso       1.00
      C449          C  0.6763798  0.6950836  0.3258822    0.00000       Uiso       1.00
      C450          C  0.6835393  0.6827810  0.3088999    0.00000       Uiso       1.00
      C451          C  0.6991490  0.6850813  0.2869987    0.00000       Uiso       1.00
      C452          C  0.7064313  0.7001575  0.2816467    0.00000       Uiso       1.00
        O2          O  0.7069653  0.7334893  0.3098919    0.00000       Uiso       1.00
      H242          H  0.6803053  0.7168430  0.3347021    0.00000       Uiso       1.00
      H243          H  0.6639965  0.6945292  0.3428516    0.00000       Uiso       1.00
      H244          H  0.7066846  0.6741399  0.2742092    0.00000       Uiso       1.00
      C453          C  0.7549362  0.6645195  0.1471911    0.00000       Uiso       1.00
      C454          C  0.7500658  0.6743048  0.1644485    0.00000       Uiso       1.00
      C455          C  0.7567979  0.6894900  0.1600843    0.00000       Uiso       1.00
      C456          C  0.7525097  0.6984273  0.1775602    0.00000       Uiso       1.00
      C457          C  0.7426893  0.6912676  0.1996841    0.00000       Uiso       1.00
      C458          C  0.7363676  0.6756767  0.2036815    0.00000       Uiso       1.00
      C459          C  0.7382761  0.6684105  0.1866815    0.00000       Uiso       1.00
        O3          O  0.7669783  0.6679902  0.1246188    0.00000       Uiso       1.00
      H245          H  0.7652188  0.6944979  0.1430671    0.00000       Uiso       1.00
      H246          H  0.7571182  0.7107968  0.1735064    0.00000       Uiso       1.00
      H247          H  0.7311097  0.6681203  0.2198620    0.00000       Uiso       1.00
      C460          C  0.7484152  0.6495134  0.1514250    0.00000       Uiso       1.00
      C461          C  0.7358499  0.6440591  0.1732496    0.00000       Uiso       1.00
      C462          C  0.7291230  0.6288384  0.1776771    0.00000       Uiso       1.00
      C463          C  0.7157608  0.6244246  0.1996029    0.00000       Uiso       1.00
      C464          C  0.7075723  0.6361831  0.2175858    0.00000       Uiso       1.00
      C465          C  0.7142565  0.6516641  0.2128090    0.00000       Uiso       1.00
      C466          C  0.7296892  0.6545092  0.1911322    0.00000       Uiso       1.00
        O4          O  0.7550175  0.6415986  0.1321115    0.00000       Uiso       1.00
      H248          H  0.7064032  0.6625300  0.2258101    0.00000       Uiso       1.00
      C467          C  0.7253059  0.7252730  0.2729183    0.00000       Uiso       1.00
      C468          C  0.7307562  0.7160177  0.2549139    0.00000       Uiso       1.00
      C469          C  0.7459688  0.7183750  0.2330173    0.00000       Uiso       1.00
      C470          C  0.7505413  0.7096996  0.2151777    0.00000       Uiso       1.00
      C471          C  0.7389074  0.6997575  0.2186942    0.00000       Uiso       1.00
      C472          C  0.7233565  0.6978992  0.2408416    0.00000       Uiso       1.00
      C473          C  0.7203714  0.7042544  0.2591586    0.00000       Uiso       1.00
        O5          O  0.7333512  0.7379058  0.2714895    0.00000       Uiso       1.00
      H249          H  0.7544178  0.7267970  0.2298676    0.00000       Uiso       1.00
      H250          H  0.7631017  0.7110266  0.1986924    0.00000       Uiso       1.00
      H251          H  0.7125613  0.6926502  0.2438258    0.00000       Uiso       1.00
      C474          C  0.6494999  0.6269794  0.3254649    0.00000       Uiso       1.00
      C475          C  0.6587611  0.6395215  0.3216685    0.00000       Uiso       1.00
      C476          C  0.6564148  0.6461904  0.3392428    0.00000       Uiso       1.00
      C477          C  0.6650931  0.6594508  0.3351605    0.00000       Uiso       1.00
      C478          C  0.6750370  0.6675666  0.3135944    0.00000       Uiso       1.00
      C479          C  0.6768934  0.6609697  0.2961826    0.00000       Uiso       1.00
      C480          C  0.6705250  0.6456487  0.2995461    0.00000       Uiso       1.00
        O6          O  0.6369430  0.6203280  0.3461703    0.00000       Uiso       1.00
      H252          H  0.6479929  0.6408758  0.3560958    0.00000       Uiso       1.00
      H253          H  0.6637645  0.6633617  0.3490554    0.00000       Uiso       1.00
      H254          H  0.6821432  0.6687564  0.2801335    0.00000       Uiso       1.00
        B1          B  0.6319075  0.6084056  0.3395163    0.00000       Uiso       1.00
        B2          B  0.7216324  0.7429579  0.2950981    0.00000       Uiso       1.00
        B3          B  0.7668042  0.6533763  0.1152669    0.00000       Uiso       1.00
      H255          H  0.6579170  0.6104078  0.2716796    0.00000       Uiso       1.00
      H256          H  0.6803512  0.6183212  0.2333913    0.00000       Uiso       1.00
      H257          H  0.7343484  0.6201910  0.1641819    0.00000       Uiso       1.00
      H258          H  0.7117733  0.6119072  0.2022141    0.00000       Uiso       1.00
      C481          C  0.5803999  0.3795414  0.6917800    0.00000       Uiso       1.00
      C482          C  0.5754930  0.3746421  0.7139704    0.00000       Uiso       1.00
      C483          C  0.5536036  0.3812802  0.7315959    0.00000       Uiso       1.00
      C484          C  0.5490425  0.3770621  0.7536595    0.00000       Uiso       1.00
      C485          C  0.5660329  0.3674068  0.7587361    0.00000       Uiso       1.00
      C486          C  0.5879238  0.3610859  0.7408053    0.00000       Uiso       1.00
      C487          C  0.5932332  0.3629110  0.7184835    0.00000       Uiso       1.00
        O7          O  0.5650241  0.3916788  0.6845366    0.00000       Uiso       1.00
      H259          H  0.6007042  0.3559498  0.7441680    0.00000       Uiso       1.00
      C488          C  0.7277585  0.2770012  0.7055627    0.00000       Uiso       1.00
      C489          C  0.7104874  0.2893798  0.7006537    0.00000       Uiso       1.00
      C490          C  0.7148392  0.2917403  0.6787466    0.00000       Uiso       1.00
      C491          C  0.6973463  0.3049151  0.6741177    0.00000       Uiso       1.00
      C492          C  0.6752208  0.3172178  0.6911001    0.00000       Uiso       1.00
      C493          C  0.6712296  0.3149174  0.7130013    0.00000       Uiso       1.00
      C494          C  0.6882362  0.2998409  0.7183533    0.00000       Uiso       1.00
        O8          O  0.7503477  0.2665085  0.6901079    0.00000       Uiso       1.00
      H260          H  0.7318514  0.2831552  0.6652977    0.00000       Uiso       1.00
      H261          H  0.7013779  0.3054695  0.6571484    0.00000       Uiso       1.00
      H262          H  0.6550343  0.3258588  0.7257907    0.00000       Uiso       1.00
      C495          C  0.5666469  0.3354796  0.8528090    0.00000       Uiso       1.00
      C496          C  0.5888193  0.3256941  0.8355515    0.00000       Uiso       1.00
      C497          C  0.6063726  0.3105088  0.8399157    0.00000       Uiso       1.00
      C498          C  0.6284977  0.3015712  0.8224397    0.00000       Uiso       1.00
      C499          C  0.6336415  0.3087310  0.8003158    0.00000       Uiso       1.00
      C500          C  0.6157262  0.3243221  0.7963184    0.00000       Uiso       1.00
      C501          C  0.5933684  0.3315884  0.8133186    0.00000       Uiso       1.00
        O9          O  0.5595874  0.3320088  0.8753812    0.00000       Uiso       1.00
      H263          H  0.6027842  0.3055007  0.8569329    0.00000       Uiso       1.00
      H264          H  0.6414220  0.2892016  0.8264935    0.00000       Uiso       1.00
      H265          H  0.6190924  0.3318785  0.7801380    0.00000       Uiso       1.00
      C502          C  0.5493537  0.3504859  0.8485750    0.00000       Uiso       1.00
      C503          C  0.5531586  0.3559402  0.8267505    0.00000       Uiso       1.00
      C504          C  0.5356383  0.3711612  0.8223230    0.00000       Uiso       1.00
      C505          C  0.5397881  0.3755750  0.8003972    0.00000       Uiso       1.00
      C506          C  0.5613411  0.3638164  0.7824143    0.00000       Uiso       1.00
      C507          C  0.5787297  0.3483352  0.7871911    0.00000       Uiso       1.00
      C508          C  0.5753307  0.3454900  0.8088679    0.00000       Uiso       1.00
       O10          O  0.5287277  0.3584008  0.8678886    0.00000       Uiso       1.00
      H266          H  0.5947435  0.3374692  0.7741899    0.00000       Uiso       1.00
      C509          C  0.7234982  0.2747249  0.7270817    0.00000       Uiso       1.00
      C510          C  0.7016886  0.2839804  0.7450860    0.00000       Uiso       1.00
      C511          C  0.6973620  0.2816229  0.7669826    0.00000       Uiso       1.00
      C512          C  0.6754194  0.2902985  0.7848222    0.00000       Uiso       1.00
      C513          C  0.6573598  0.3002408  0.7813057    0.00000       Uiso       1.00
      C514          C  0.6620979  0.3020993  0.7591584    0.00000       Uiso       1.00
      C515          C  0.6837851  0.2957439  0.7408413    0.00000       Uiso       1.00
       O11          O  0.7427477  0.2620919  0.7285103    0.00000       Uiso       1.00
      H267          H  0.7110834  0.2732008  0.7701323    0.00000       Uiso       1.00
      H268          H  0.6728216  0.2889714  0.8013074    0.00000       Uiso       1.00
      H269          H  0.6490377  0.3073485  0.7561742    0.00000       Uiso       1.00
      C516          C  0.6019441  0.3730203  0.6745352    0.00000       Uiso       1.00
      C517          C  0.6199513  0.3604780  0.6783315    0.00000       Uiso       1.00
      C518          C  0.6418481  0.3538089  0.6607573    0.00000       Uiso       1.00
      C519          C  0.6597047  0.3405482  0.6648395    0.00000       Uiso       1.00
      C520          C  0.6561984  0.3324324  0.6864056    0.00000       Uiso       1.00
      C521          C  0.6340460  0.3390295  0.7038174    0.00000       Uiso       1.00
      C522          C  0.6157200  0.3543507  0.7004539    0.00000       Uiso       1.00
       O12          O  0.6034412  0.3796718  0.6538298    0.00000       Uiso       1.00
      H270          H  0.6449648  0.3591235  0.6439043    0.00000       Uiso       1.00
      H271          H  0.6761822  0.3366372  0.6509446    0.00000       Uiso       1.00
      H272          H  0.6310334  0.3312428  0.7198665    0.00000       Uiso       1.00
        B4          B  0.5798292  0.3915945  0.6604838    0.00000       Uiso       1.00
        B5          B  0.7596896  0.2570397  0.7049018    0.00000       Uiso       1.00
        B6          B  0.5354474  0.3466230  0.8847331    0.00000       Uiso       1.00
      H273          H  0.5400040  0.3895924  0.7283206    0.00000       Uiso       1.00
      H274          H  0.5320634  0.3816788  0.7666089    0.00000       Uiso       1.00
      H275          H  0.5187209  0.3798087  0.8358182    0.00000       Uiso       1.00
      H276          H  0.5258944  0.3880926  0.7977861    0.00000       Uiso       1.00
      C523          C  0.5957461  0.1472400  0.3375278    0.00000       Uiso       1.00
      C524          C  0.5818396  0.1645061  0.3292529    0.00000       Uiso       1.00
      C525          C  0.5752475  0.1601850  0.3182765    0.00000       Uiso       1.00
      C526          C  0.5622069  0.1776717  0.3091900    0.00000       Uiso       1.00
      C527          C  0.5566280  0.1997326  0.3096623    0.00000       Uiso       1.00
      C528          C  0.5636620  0.2037020  0.3205479    0.00000       Uiso       1.00
      C529          C  0.5746971  0.1867253  0.3318505    0.00000       Uiso       1.00
       O13          O  0.6046747  0.1246749  0.3357548    0.00000       Uiso       1.00
      H277          H  0.5801795  0.1431985  0.3169003    0.00000       Uiso       1.00
      H278          H  0.5567468  0.1736916  0.3016755    0.00000       Uiso       1.00
      H279          H  0.5617214  0.2198351  0.3191236    0.00000       Uiso       1.00
      C530          C  0.5374457  0.3082358  0.3820264    0.00000       Uiso       1.00
      C531          C  0.5457307  0.2860580  0.3786508    0.00000       Uiso       1.00
      C532          C  0.5567151  0.2684945  0.3895533    0.00000       Uiso       1.00
      C533          C  0.5658115  0.2463713  0.3850919    0.00000       Uiso       1.00
      C534          C  0.5653413  0.2412643  0.3686054    0.00000       Uiso       1.00
      C535          C  0.5544478  0.2591790  0.3576128    0.00000       Uiso       1.00
      C536          C  0.5431353  0.2815118  0.3635690    0.00000       Uiso       1.00
       O14          O  0.5392154  0.3153922  0.3956702    0.00000       Uiso       1.00
      H280          H  0.5580896  0.2720519  0.4016112    0.00000       Uiso       1.00
      H281          H  0.5733318  0.2334004  0.3945238    0.00000       Uiso       1.00
      H282          H  0.5558736  0.2558146  0.3434180    0.00000       Uiso       1.00
      C537          C  0.4929533  0.2944148  0.2792988    0.00000       Uiso       1.00
      C538          C  0.4963268  0.2993258  0.2931974    0.00000       Uiso       1.00
      C539          C  0.4854144  0.3212080  0.2997914    0.00000       Uiso       1.00
      C540          C  0.4898739  0.3258447  0.3128242    0.00000       Uiso       1.00
      C541          C  0.5063681  0.3088952  0.3183934    0.00000       Uiso       1.00
      C542          C  0.5173705  0.2870141  0.3113575    0.00000       Uiso       1.00
      C543          C  0.5114166  0.2816552  0.3003301    0.00000       Uiso       1.00
       O15          O  0.4793026  0.3098220  0.2703804    0.00000       Uiso       1.00
      H283          H  0.4733500  0.3346356  0.2948669    0.00000       Uiso       1.00
      H284          H  0.4804344  0.3427928  0.3182860    0.00000       Uiso       1.00
      H285          H  0.5315713  0.2742513  0.3132908    0.00000       Uiso       1.00
      C544          C  0.5040427  0.2729619  0.2724473    0.00000       Uiso       1.00
      C545          C  0.5181237  0.2549550  0.2801725    0.00000       Uiso       1.00
      C546          C  0.5290284  0.2330642  0.2736061    0.00000       Uiso       1.00
      C547          C  0.5421606  0.2152113  0.2824173    0.00000       Uiso       1.00
      C548          C  0.5435661  0.2187308  0.2990342    0.00000       Uiso       1.00
      C549          C  0.5322492  0.2408737  0.3056142    0.00000       Uiso       1.00
      C550          C  0.5209560  0.2591833  0.2952363    0.00000       Uiso       1.00
       O16          O  0.4989809  0.2715717  0.2582546    0.00000       Uiso       1.00
      H286          H  0.5273736  0.2299250  0.2615441    0.00000       Uiso       1.00
      H287          H  0.5509799  0.1987095  0.2762323    0.00000       Uiso       1.00
      H288          H  0.5310718  0.2438692  0.3198194    0.00000       Uiso       1.00
      C551          C  0.5270677  0.3254513  0.3709469    0.00000       Uiso       1.00
      C552          C  0.5231275  0.3216566  0.3568738    0.00000       Uiso       1.00
      C553          C  0.5121267  0.3392094  0.3459791    0.00000       Uiso       1.00
      C554          C  0.5073925  0.3351227  0.3328545    0.00000       Uiso       1.00
      C555          C  0.5123184  0.3135837  0.3314472    0.00000       Uiso       1.00
      C556          C  0.5231591  0.2961773  0.3427543    0.00000       Uiso       1.00
      C557          C  0.5301887  0.2995367  0.3540395    0.00000       Uiso       1.00
       O17          O  0.5206177  0.3460907  0.3760092    0.00000       Uiso       1.00
      H289          H  0.5073321  0.3560624  0.3476359    0.00000       Uiso       1.00
      H290          H  0.4996984  0.3489911  0.3240430    0.00000       Uiso       1.00
      H291          H  0.5249789  0.2801544  0.3439303    0.00000       Uiso       1.00
      C558          C  0.6025961  0.1514805  0.3478981    0.00000       Uiso       1.00
      C559          C  0.5948612  0.1732832  0.3518402    0.00000       Uiso       1.00
      C560          C  0.6014260  0.1776243  0.3628328    0.00000       Uiso       1.00
      C561          C  0.5926049  0.1995640  0.3675690    0.00000       Uiso       1.00
      C562          C  0.5759797  0.2175790  0.3626530    0.00000       Uiso       1.00
      C563          C  0.5694015  0.2128393  0.3518203    0.00000       Uiso       1.00
      C564          C  0.5797892  0.1911728  0.3447891    0.00000       Uiso       1.00
       O18          O  0.6167978  0.1322318  0.3543387    0.00000       Uiso       1.00
      H292          H  0.6134943  0.1639133  0.3676199    0.00000       Uiso       1.00
      H293          H  0.5987888  0.2022010  0.3752565    0.00000       Uiso       1.00
      H294          H  0.5551902  0.2258610  0.3500078    0.00000       Uiso       1.00
        B7          B  0.6180049  0.1153073  0.3465161    0.00000       Uiso       1.00
        B8          B  0.5284431  0.3394788  0.3917243    0.00000       Uiso       1.00
        B9          B  0.4832551  0.2951054  0.2570549    0.00000       Uiso       1.00
      C565          C  0.0805105  0.8527648  0.6624730    0.00000       Uiso       1.00
      C566          C  0.0755951  0.8354989  0.6707479    0.00000       Uiso       1.00
      C567          C  0.0537052  0.8398203  0.6817244    0.00000       Uiso       1.00
      C568          C  0.0490648  0.8223337  0.6908109    0.00000       Uiso       1.00
      C569          C  0.0660191  0.8002728  0.6903387    0.00000       Uiso       1.00
      C570          C  0.0879084  0.7963031  0.6794530    0.00000       Uiso       1.00
      C571          C  0.0932694  0.8132797  0.6681504    0.00000       Uiso       1.00
       O19          O  0.0651009  0.8753301  0.6642460    0.00000       Uiso       1.00
      H295          H  0.0402745  0.8568069  0.6831006    0.00000       Uiso       1.00
      H296          H  0.0321100  0.8263141  0.6983255    0.00000       Uiso       1.00
      H297          H  0.1006768  0.7801698  0.6808773    0.00000       Uiso       1.00
      C572          C  0.2277051  0.6917683  0.6179743    0.00000       Uiso       1.00
      C573          C  0.2104367  0.7139462  0.6213500    0.00000       Uiso       1.00
      C574          C  0.2147601  0.7315094  0.6104474    0.00000       Uiso       1.00
      C575          C  0.1972717  0.7536328  0.6149089    0.00000       Uiso       1.00
      C576          C  0.1752080  0.7587400  0.6313953    0.00000       Uiso       1.00
      C577          C  0.1712364  0.7408255  0.6423880    0.00000       Uiso       1.00
      C578          C  0.1882130  0.7184926  0.6364318    0.00000       Uiso       1.00
       O20          O  0.2502750  0.6846117  0.6043305    0.00000       Uiso       1.00
      H298          H  0.2317500  0.7279520  0.5983895    0.00000       Uiso       1.00
      H299          H  0.2012534  0.7666036  0.6054769    0.00000       Uiso       1.00
      H300          H  0.1551030  0.7441899  0.6565828    0.00000       Uiso       1.00
      C579          C  0.0666630  0.7055911  0.7207022    0.00000       Uiso       1.00
      C580          C  0.0888461  0.7006799  0.7068036    0.00000       Uiso       1.00
      C581          C  0.1064099  0.6787977  0.7002096    0.00000       Uiso       1.00
      C582          C  0.1285392  0.6741607  0.6871766    0.00000       Uiso       1.00
      C583          C  0.1336533  0.6911100  0.6816075    0.00000       Uiso       1.00
      C584          C  0.1157385  0.7129912  0.6886434    0.00000       Uiso       1.00
      C585          C  0.0933981  0.7183504  0.6996709    0.00000       Uiso       1.00
       O21          O  0.0595009  0.6901842  0.7296206    0.00000       Uiso       1.00
      H301          H  0.1028487  0.6653702  0.7051341    0.00000       Uiso       1.00
      H302          H  0.1415096  0.6572125  0.6817150    0.00000       Uiso       1.00
      H303          H  0.1191099  0.7257538  0.6867101    0.00000       Uiso       1.00
      C586          C  0.0494477  0.7270442  0.7275537    0.00000       Uiso       1.00
      C587          C  0.0532472  0.7450509  0.7198285    0.00000       Uiso       1.00
      C588          C  0.0356946  0.7669417  0.7263949    0.00000       Uiso       1.00
      C589          C  0.0397853  0.7847944  0.7175837    0.00000       Uiso       1.00
      C590          C  0.0613273  0.7812747  0.7009667    0.00000       Uiso       1.00
      C591          C  0.0787334  0.7591318  0.6943867    0.00000       Uiso       1.00
      C592          C  0.0753717  0.7408224  0.7047647    0.00000       Uiso       1.00
       O22          O  0.0288030  0.7284345  0.7417464    0.00000       Uiso       1.00
      H304          H  0.0188386  0.7700810  0.7384568    0.00000       Uiso       1.00
      H305          H  0.0259176  0.8012962  0.7237687    0.00000       Uiso       1.00
      H306          H  0.0947568  0.7561362  0.6801815    0.00000       Uiso       1.00
      C593          C  0.2234630  0.6745529  0.6290540    0.00000       Uiso       1.00
      C594          C  0.2016549  0.6783478  0.6431270    0.00000       Uiso       1.00
      C595          C  0.1973121  0.6607952  0.6540217    0.00000       Uiso       1.00
      C596          C  0.1753665  0.6648821  0.6671463    0.00000       Uiso       1.00
      C597          C  0.1573460  0.6864212  0.6685537    0.00000       Uiso       1.00
      C598          C  0.1620874  0.7038275  0.6572465    0.00000       Uiso       1.00
      C599          C  0.1837617  0.7004679  0.6459613    0.00000       Uiso       1.00
       O23          O  0.2427147  0.6539134  0.6239916    0.00000       Uiso       1.00
      H307          H  0.2110273  0.6439421  0.6523649    0.00000       Uiso       1.00
      H308          H  0.1727293  0.6510138  0.6759578    0.00000       Uiso       1.00
      H309          H  0.1490602  0.7198505  0.6560706    0.00000       Uiso       1.00
      C600          C  0.1019714  0.8485242  0.6521027    0.00000       Uiso       1.00
      C601          C  0.1199814  0.8267213  0.6481606    0.00000       Uiso       1.00
      C602          C  0.1418801  0.8223800  0.6371679    0.00000       Uiso       1.00
      C603          C  0.1597349  0.8004402  0.6324317    0.00000       Uiso       1.00
      C604          C  0.1562087  0.7824254  0.6373477    0.00000       Uiso       1.00
      C605          C  0.1340578  0.7871653  0.6481805    0.00000       Uiso       1.00
      C606          C  0.1157478  0.8088319  0.6552117    0.00000       Uiso       1.00
       O24          O  0.1033651  0.8677727  0.6456621    0.00000       Uiso       1.00
      H310          H  0.1450245  0.8360908  0.6323808    0.00000       Uiso       1.00
      H311          H  0.1762435  0.7978030  0.6247442    0.00000       Uiso       1.00
      H312          H  0.1310557  0.7741438  0.6499930    0.00000       Uiso       1.00
       B10          B  0.0798249  0.8846974  0.6534846    0.00000       Uiso       1.00
       B11          B  0.2596435  0.6605251  0.6082764    0.00000       Uiso       1.00
       B12          B  0.0354111  0.7049009  0.7429461    0.00000       Uiso       1.00
      C607          C  0.9952420  0.3530138  0.8347840    0.00000       Uiso       1.00
      C608          C  0.0001294  0.3357401  0.8249722    0.00000       Uiso       1.00
      C609          C  0.9934737  0.3400118  0.8097326    0.00000       Uiso       1.00
      C610          C  0.9976801  0.3225192  0.8009475    0.00000       Uiso       1.00
      C611          C  0.0073407  0.3004545  0.8082652    0.00000       Uiso       1.00
      C612          C  0.0136793  0.2964865  0.8238236    0.00000       Uiso       1.00
      C613          C  0.0118664  0.3134889  0.8309634    0.00000       Uiso       1.00
       O25          O  0.9831012  0.3756299  0.8315624    0.00000       Uiso       1.00
      H313          H  0.0188194  0.2803448  0.8314551    0.00000       Uiso       1.00
      C614          C  0.0978413  0.1918786  0.8794647    0.00000       Uiso       1.00
      C615          C  0.0854572  0.2140566  0.8745897    0.00000       Uiso       1.00
      C616          C  0.0831084  0.2316021  0.8813081    0.00000       Uiso       1.00
      C617          C  0.0699279  0.2537218  0.8770076    0.00000       Uiso       1.00
      C618          C  0.0576080  0.2588725  0.8671969    0.00000       Uiso       1.00
      C619          C  0.0598969  0.2409723  0.8608990    0.00000       Uiso       1.00
      C620          C  0.0749785  0.2186160  0.8628117    0.00000       Uiso       1.00
       O26          O  0.1083508  0.1847373  0.8915479    0.00000       Uiso       1.00
      H314          H  0.0917069  0.2280327  0.8897260    0.00000       Uiso       1.00
      H315          H  0.0693828  0.2666520  0.8815976    0.00000       Uiso       1.00
      H316          H  0.0489426  0.2443838  0.8556539    0.00000       Uiso       1.00
      C621          C  0.0392266  0.2058093  0.7769092    0.00000       Uiso       1.00
      C622          C  0.0490294  0.2008866  0.7892842    0.00000       Uiso       1.00
      C623          C  0.0642206  0.1789711  0.7916344    0.00000       Uiso       1.00
      C624          C  0.0731757  0.1743141  0.8048101    0.00000       Uiso       1.00
      C625          C  0.0660279  0.1912844  0.8171191    0.00000       Uiso       1.00
      C626          C  0.0504307  0.2131954  0.8148127    0.00000       Uiso       1.00
      C627          C  0.0431470  0.2185607  0.7997334    0.00000       Uiso       1.00
       O27          O  0.0426842  0.1903064  0.7663751    0.00000       Uiso       1.00
      H317          H  0.0692195  0.1655498  0.7830336    0.00000       Uiso       1.00
      H318          H  0.0855493  0.1573378  0.8053514    0.00000       Uiso       1.00
      H319          H  0.0428829  0.2260026  0.8257394    0.00000       Uiso       1.00
      C628          C  0.0242145  0.2273346  0.7746396    0.00000       Uiso       1.00
      C629          C  0.0187715  0.2453445  0.7839052    0.00000       Uiso       1.00
      C630          C  0.0035447  0.2672903  0.7816236    0.00000       Uiso       1.00
      C631          C  0.9991423  0.2850566  0.7901934    0.00000       Uiso       1.00
      C632          C  0.0109186  0.2814784  0.7999765    0.00000       Uiso       1.00
      C633          C  0.0264053  0.2593152  0.8018664    0.00000       Uiso       1.00
      C634          C  0.0292394  0.2410471  0.7956154    0.00000       Uiso       1.00
       O28          O  0.0162820  0.2286556  0.7619382    0.00000       Uiso       1.00
      H320          H  0.0372842  0.2562968  0.8070056    0.00000       Uiso       1.00
      C635          C  0.1001062  0.1746294  0.8729224    0.00000       Uiso       1.00
      C636          C  0.0908331  0.1784427  0.8603796    0.00000       Uiso       1.00
      C637          C  0.0931789  0.1608825  0.8536896    0.00000       Uiso       1.00
      C638          C  0.0844858  0.1649933  0.8404341    0.00000       Uiso       1.00
      C639          C  0.0745370  0.1865679  0.8323346    0.00000       Uiso       1.00
      C640          C  0.0726905  0.2039673  0.8389367    0.00000       Uiso       1.00
      C641          C  0.0790635  0.2005890  0.8542575    0.00000       Uiso       1.00
       O29          O  0.1127471  0.1539520  0.8795208    0.00000       Uiso       1.00
      H321          H  0.1016057  0.1440128  0.8589751    0.00000       Uiso       1.00
      H322          H  0.0858044  0.1511132  0.8365040    0.00000       Uiso       1.00
      H323          H  0.0674368  0.2200103  0.8311388    0.00000       Uiso       1.00
      C642          C  0.0017804  0.3487068  0.8497956    0.00000       Uiso       1.00
      C643          C  0.0143290  0.3269050  0.8552426    0.00000       Uiso       1.00
      C644          C  0.0210155  0.3225746  0.8704588    0.00000       Uiso       1.00
      C645          C  0.0342822  0.3006376  0.8750370    0.00000       Uiso       1.00
      C646          C  0.0423870  0.2825873  0.8634081    0.00000       Uiso       1.00
      C647          C  0.0357724  0.2873357  0.8478649    0.00000       Uiso       1.00
      C648          C  0.0204446  0.3090237  0.8448780    0.00000       Uiso       1.00
       O30          O  0.9951386  0.3679059  0.8579521    0.00000       Uiso       1.00
      H324          H  0.0157097  0.3363036  0.8788948    0.00000       Uiso       1.00
      H325          H  0.0382067  0.2980490  0.8875948    0.00000       Uiso       1.00
      H326          H  0.0435507  0.2743061  0.8370610    0.00000       Uiso       1.00
       B13          B  0.9832026  0.3848670  0.8462808    0.00000       Uiso       1.00
       B14          B  0.1178172  0.1606081  0.8914061    0.00000       Uiso       1.00
       B15          B  0.0280552  0.2050987  0.7568667    0.00000       Uiso       1.00
      H327          H  0.9851571  0.3568853  0.8044586    0.00000       Uiso       1.00
      H328          H  0.9930501  0.3265547  0.7885944    0.00000       Uiso       1.00
      H329          H  0.9948837  0.2707185  0.7733628    0.00000       Uiso       1.00
      H330          H  0.9866198  0.3015604  0.7888308    0.00000       Uiso       1.00
      C649          C  0.5218101  0.8821990  0.8085773    0.00000       Uiso       1.00
      C650          C  0.5390702  0.8788430  0.7863966    0.00000       Uiso       1.00
      C651          C  0.5347343  0.8897612  0.7688426    0.00000       Uiso       1.00
      C652          C  0.5522150  0.8853191  0.7467156    0.00000       Uiso       1.00
      C653          C  0.5742836  0.8688367  0.7415941    0.00000       Uiso       1.00
      C654          C  0.5782678  0.8578283  0.7594991    0.00000       Uiso       1.00
      C655          C  0.5612985  0.8637650  0.7818369    0.00000       Uiso       1.00
       O31          O  0.4992371  0.8958367  0.8157458    0.00000       Uiso       1.00
      H331          H  0.5177411  0.9018164  0.7724100    0.00000       Uiso       1.00
      H332          H  0.5482239  0.8947626  0.7337530    0.00000       Uiso       1.00
      H333          H  0.5944060  0.8436362  0.7561222    0.00000       Uiso       1.00
      C656          C  0.6828918  0.7794825  0.7946638    0.00000       Uiso       1.00
      C657          C  0.6607047  0.7933769  0.7995871    0.00000       Uiso       1.00
      C658          C  0.6431480  0.7999514  0.8214750    0.00000       Uiso       1.00
      C659          C  0.6210149  0.8129805  0.8261235    0.00000       Uiso       1.00
      C660          C  0.6158907  0.8185650  0.8091792    0.00000       Uiso       1.00
      C661          C  0.6337987  0.8115485  0.7872918    0.00000       Uiso       1.00
      C662          C  0.6561418  0.8005255  0.7819229    0.00000       Uiso       1.00
       O32          O  0.6900643  0.7705504  0.8100631    0.00000       Uiso       1.00
      H334          H  0.6467183  0.7950142  0.8348976    0.00000       Uiso       1.00
      H335          H  0.6080500  0.8184268  0.8430766    0.00000       Uiso       1.00
      H336          H  0.6304208  0.8134935  0.7745308    0.00000       Uiso       1.00
      C663          C  0.6689527  0.8378419  0.6475420    0.00000       Uiso       1.00
      C664          C  0.6738800  0.8295511  0.6648003    0.00000       Uiso       1.00
      C665          C  0.6957728  0.8185784  0.6604692    0.00000       Uiso       1.00
      C666          C  0.7004253  0.8094761  0.6779476    0.00000       Uiso       1.00
      C667          C  0.6834806  0.8099291  0.7000089    0.00000       Uiso       1.00
      C668          C  0.6615883  0.8208111  0.7039883    0.00000       Uiso       1.00
      C669          C  0.6562145  0.8321289  0.6870219    0.00000       Uiso       1.00
       O33          O  0.6843527  0.8360893  0.6249753    0.00000       Uiso       1.00
      H337          H  0.7091967  0.8172170  0.6434814    0.00000       Uiso       1.00
      H338          H  0.7173817  0.8019651  0.6739607    0.00000       Uiso       1.00
      H339          H  0.6488280  0.8193724  0.7201201    0.00000       Uiso       1.00
      C670          C  0.6474890  0.8482087  0.6517920    0.00000       Uiso       1.00
      C671          C  0.6294872  0.8521312  0.6735983    0.00000       Uiso       1.00
      C672          C  0.6075857  0.8631204  0.6779494    0.00000       Uiso       1.00
      C673          C  0.5897385  0.8678372  0.6998931    0.00000       Uiso       1.00
      C674          C  0.5932750  0.8629049  0.7179036    0.00000       Uiso       1.00
      C675          C  0.6154287  0.8520758  0.7131542    0.00000       Uiso       1.00
      C676          C  0.6337322  0.8450639  0.6914814    0.00000       Uiso       1.00
       O34          O  0.6460832  0.8546669  0.6325497    0.00000       Uiso       1.00
      H340          H  0.6044336  0.8679199  0.6642423    0.00000       Uiso       1.00
      H341          H  0.5732278  0.8755227  0.7025369    0.00000       Uiso       1.00
      H342          H  0.6184377  0.8502513  0.7261740    0.00000       Uiso       1.00
      C677          C  0.7001005  0.7726498  0.7732050    0.00000       Uiso       1.00
      C678          C  0.6962898  0.7803910  0.7552050    0.00000       Uiso       1.00
      C679          C  0.7138358  0.7738437  0.7333086    0.00000       Uiso       1.00
      C680          C  0.7097333  0.7826706  0.7154635    0.00000       Uiso       1.00
      C681          C  0.6881856  0.7992844  0.7189976    0.00000       Uiso       1.00
      C682          C  0.6707863  0.8058452  0.7411462    0.00000       Uiso       1.00
      C683          C  0.6741605  0.7954513  0.7594466    0.00000       Uiso       1.00
       O35          O  0.7207508  0.7584581  0.7718024    0.00000       Uiso       1.00
      H343          H  0.7306957  0.7617845  0.7301592    0.00000       Uiso       1.00
      H344          H  0.7235967  0.7765000  0.6989564    0.00000       Uiso       1.00
      H345          H  0.6547580  0.8200480  0.7441542    0.00000       Uiso       1.00
      C684          C  0.5260647  0.8711040  0.8257830    0.00000       Uiso       1.00
      C685          C  0.5478774  0.8570341  0.8219758    0.00000       Uiso       1.00
      C686          C  0.5522332  0.8461234  0.8395185    0.00000       Uiso       1.00
      C687          C  0.5741830  0.8330025  0.8354198    0.00000       Uiso       1.00
      C688          C  0.5921942  0.8316147  0.8138797    0.00000       Uiso       1.00
      C689          C  0.5874397  0.8429375  0.7964836    0.00000       Uiso       1.00
      C690          C  0.5657619  0.8542196  0.7998533    0.00000       Uiso       1.00
       O36          O  0.5068196  0.8761482  0.8464268    0.00000       Uiso       1.00
      H346          H  0.5385258  0.8477641  0.8563732    0.00000       Uiso       1.00
      H347          H  0.5768309  0.8241781  0.8492799    0.00000       Uiso       1.00
      H348          H  0.6004592  0.8441278  0.7804618    0.00000       Uiso       1.00
       B16          B  0.4898809  0.8918693  0.8398288    0.00000       Uiso       1.00
       B17          B  0.7141534  0.7572376  0.7953348    0.00000       Uiso       1.00
       B18          B  0.6696193  0.8468595  0.6156178    0.00000       Uiso       1.00
      C691          C  0.0223366  0.7947843  0.2231119    0.00000       Uiso       1.00
      C692          C  0.0396168  0.7997043  0.2107256    0.00000       Uiso       1.00
      C693          C  0.0353490  0.8215927  0.2083545    0.00000       Uiso       1.00
      C694          C  0.0528475  0.8261674  0.1950683    0.00000       Uiso       1.00
      C695          C  0.0749133  0.8091922  0.1826522    0.00000       Uiso       1.00
      C696          C  0.0788772  0.7873023  0.1850101    0.00000       Uiso       1.00
      C697          C  0.0618706  0.7819787  0.2001982    0.00000       Uiso       1.00
       O37          O  0.9997163  0.8101455  0.2335995    0.00000       Uiso       1.00
      H349          H  0.0950178  0.7745339  0.1740006    0.00000       Uiso       1.00
      C698          C  0.1834978  0.6475232  0.1644642    0.00000       Uiso       1.00
      C699          C  0.1613164  0.6647803  0.1742714    0.00000       Uiso       1.00
      C700          C  0.1437668  0.6604140  0.1894672    0.00000       Uiso       1.00
      C701          C  0.1216430  0.6778932  0.1984202    0.00000       Uiso       1.00
      C702          C  0.1164912  0.7000194  0.1912663    0.00000       Uiso       1.00
      C703          C  0.1343953  0.7040255  0.1756558    0.00000       Uiso       1.00
      C704          C  0.1567576  0.6870319  0.1683667    0.00000       Uiso       1.00
       O38          O  0.1906383  0.6249360  0.1678177    0.00000       Uiso       1.00
      H350          H  0.1473361  0.6434013  0.1944850    0.00000       Uiso       1.00
      H351          H  0.1087104  0.6738504  0.2108038    0.00000       Uiso       1.00
      H352          H  0.1309814  0.7202225  0.1681251    0.00000       Uiso       1.00
      C705          C  0.1695870  0.8086477  0.1198783    0.00000       Uiso       1.00
      C706          C  0.1745085  0.7864753  0.1247442    0.00000       Uiso       1.00
      C707          C  0.1964298  0.7689348  0.1180053    0.00000       Uiso       1.00
      C708          C  0.2010848  0.7468100  0.1222895    0.00000       Uiso       1.00
      C709          C  0.1841058  0.7416543  0.1321129    0.00000       Uiso       1.00
      C710          C  0.1621889  0.7595571  0.1384416    0.00000       Uiso       1.00
      C711          C  0.1568271  0.7819133  0.1365364    0.00000       Uiso       1.00
       O39          O  0.1850962  0.8157192  0.1078347    0.00000       Uiso       1.00
      H353          H  0.2098572  0.7725327  0.1095822    0.00000       Uiso       1.00
      H354          H  0.2180665  0.7338951  0.1176754    0.00000       Uiso       1.00
      H355          H  0.1493734  0.7561831  0.1437029    0.00000       Uiso       1.00
      C712          C  0.1480561  0.8259284  0.1264059    0.00000       Uiso       1.00
      C713          C  0.1300395  0.8221101  0.1389737    0.00000       Uiso       1.00
      C714          C  0.1080879  0.8396176  0.1457073    0.00000       Uiso       1.00
      C715          C  0.0903157  0.8354541  0.1590714    0.00000       Uiso       1.00
      C716          C  0.0938947  0.8138992  0.1672545    0.00000       Uiso       1.00
      C717          C  0.1160640  0.7965233  0.1605633    0.00000       Uiso       1.00
      C718          C  0.1343363  0.7999372  0.1451295    0.00000       Uiso       1.00
       O40          O  0.1467372  0.8465567  0.1198072    0.00000       Uiso       1.00
      H356          H  0.1190849  0.7805075  0.1684118    0.00000       Uiso       1.00
      C719          C  0.2007509  0.6517978  0.1494808    0.00000       Uiso       1.00
      C720          C  0.1969392  0.6736080  0.1440348    0.00000       Uiso       1.00
      C721          C  0.2145035  0.6779490  0.1288213    0.00000       Uiso       1.00
      C722          C  0.2103948  0.6998917  0.1242527    0.00000       Uiso       1.00
      C723          C  0.1888193  0.7179366  0.1358910    0.00000       Uiso       1.00
      C724          C  0.1714161  0.7131840  0.1514426    0.00000       Uiso       1.00
      C725          C  0.1747903  0.6914971  0.1544249    0.00000       Uiso       1.00
       O41          O  0.2214311  0.6325611  0.1414301    0.00000       Uiso       1.00
      H357          H  0.2313747  0.6642389  0.1203685    0.00000       Uiso       1.00
      H358          H  0.2242773  0.7025012  0.1116918    0.00000       Uiso       1.00
      H359          H  0.1553742  0.7262322  0.1622402    0.00000       Uiso       1.00
      C726          C  0.0266397  0.7732412  0.2253307    0.00000       Uiso       1.00
      C727          C  0.0484447  0.7552478  0.2160638    0.00000       Uiso       1.00
      C728          C  0.0527713  0.7333519  0.2184072    0.00000       Uiso       1.00
      C729          C  0.0747122  0.7155089  0.2097230    0.00000       Uiso       1.00
      C730          C  0.0927713  0.7190276  0.1997755    0.00000       Uiso       1.00
      C731          C  0.0880270  0.7411786  0.1979220    0.00000       Uiso       1.00
      C732          C  0.0663335  0.7594921  0.2042972    0.00000       Uiso       1.00
       O42          O  0.0074339  0.7717301  0.2378904    0.00000       Uiso       1.00
      H360          H  0.0390361  0.7302256  0.2268313    0.00000       Uiso       1.00
      H361          H  0.0772970  0.6990321  0.2110498    0.00000       Uiso       1.00
      H362          H  0.1010648  0.7441992  0.1926687    0.00000       Uiso       1.00
       B19          B  0.9904726  0.7953323  0.2429313    0.00000       Uiso       1.00
       B20          B  0.2147719  0.6156111  0.1531464    0.00000       Uiso       1.00
       B21          B  0.1703016  0.8398525  0.1080153    0.00000       Uiso       1.00
      H363          H  0.0184741  0.8351811  0.2169211    0.00000       Uiso       1.00
      H364          H  0.0488154  0.8431450  0.1944835    0.00000       Uiso       1.00
      H365          H  0.1046596  0.8565357  0.1404859    0.00000       Uiso       1.00
      H366          H  0.0738070  0.8493387  0.1630644    0.00000       Uiso       1.00
      C733          C  0.2125847  0.1178053  0.1914235    0.00000       Uiso       1.00
      C734          C  0.2043082  0.1211613  0.2136042    0.00000       Uiso       1.00
      C735          C  0.1933366  0.1102432  0.2311581    0.00000       Uiso       1.00
      C736          C  0.1842480  0.1146853  0.2532851    0.00000       Uiso       1.00
      C737          C  0.1847128  0.1311675  0.2584066    0.00000       Uiso       1.00
      C738          C  0.1955936  0.1421757  0.2405017    0.00000       Uiso       1.00
      C739          C  0.2068990  0.1362390  0.2181638    0.00000       Uiso       1.00
       O43          O  0.2108179  0.1041679  0.1842550    0.00000       Uiso       1.00
      H367          H  0.1919658  0.0981882  0.2275909    0.00000       Uiso       1.00
      H368          H  0.1767376  0.1052419  0.2662478    0.00000       Uiso       1.00
      H369          H  0.1941630  0.1563676  0.2438785    0.00000       Uiso       1.00
      C740          C  0.2570375  0.2205200  0.2053367    0.00000       Uiso       1.00
      C741          C  0.2536680  0.2066258  0.2004135    0.00000       Uiso       1.00
      C742          C  0.2645736  0.2000514  0.1785256    0.00000       Uiso       1.00
      C743          C  0.2601180  0.1870226  0.1738770    0.00000       Uiso       1.00
      C744          C  0.2436339  0.1814383  0.1908213    0.00000       Uiso       1.00
      C745          C  0.2326381  0.1884546  0.2127088    0.00000       Uiso       1.00
      C746          C  0.2385893  0.1994774  0.2180776    0.00000       Uiso       1.00
       O44          O  0.2706773  0.2294520  0.1899374    0.00000       Uiso       1.00
      H370          H  0.2766294  0.2049884  0.1651030    0.00000       Uiso       1.00
      H371          H  0.2695525  0.1815763  0.1569240    0.00000       Uiso       1.00
      H372          H  0.2184440  0.1865099  0.2254698    0.00000       Uiso       1.00
      C747          C  0.1543351  0.1621617  0.3524587    0.00000       Uiso       1.00
      C748          C  0.1682301  0.1704522  0.3352003    0.00000       Uiso       1.00
      C749          C  0.1748192  0.1814248  0.3395314    0.00000       Uiso       1.00
      C750          C  0.1878481  0.1905268  0.3220529    0.00000       Uiso       1.00
      C751          C  0.1934175  0.1900740  0.2999916    0.00000       Uiso       1.00
      C752          C  0.1863865  0.1791922  0.2960123    0.00000       Uiso       1.00
      C753          C  0.1753640  0.1678745  0.3129787    0.00000       Uiso       1.00
       O45          O  0.1454158  0.1639142  0.3750254    0.00000       Uiso       1.00
      H373          H  0.1698940  0.1827860  0.3565192    0.00000       Uiso       1.00
      H374          H  0.1933064  0.1980378  0.3260399    0.00000       Uiso       1.00
      H375          H  0.1883192  0.1806311  0.2798805    0.00000       Uiso       1.00
      C754          C  0.1474882  0.1517951  0.3482086    0.00000       Uiso       1.00
      C755          C  0.1552153  0.1478727  0.3264023    0.00000       Uiso       1.00
      C756          C  0.1486537  0.1368837  0.3220514    0.00000       Uiso       1.00
      C757          C  0.1574672  0.1321670  0.3001076    0.00000       Uiso       1.00
      C758          C  0.1740820  0.1370991  0.2820971    0.00000       Uiso       1.00
      C759          C  0.1806572  0.1479280  0.2868465    0.00000       Uiso       1.00
      C760          C  0.1702760  0.1549398  0.3085193    0.00000       Uiso       1.00
       O46          O  0.1332983  0.1453370  0.3674510    0.00000       Uiso       1.00
      H376          H  0.1365939  0.1320844  0.3357585    0.00000       Uiso       1.00
      H377          H  0.1512856  0.1244817  0.2974639    0.00000       Uiso       1.00
      H378          H  0.1948617  0.1497523  0.2738267    0.00000       Uiso       1.00
      C761          C  0.2459547  0.2273526  0.2267954    0.00000       Uiso       1.00
      C762          C  0.2318850  0.2196116  0.2447955    0.00000       Uiso       1.00
      C763          C  0.2209872  0.2261588  0.2666919    0.00000       Uiso       1.00
      C764          C  0.2078665  0.2173321  0.2845370    0.00000       Uiso       1.00
      C765          C  0.2064667  0.2007185  0.2810030    0.00000       Uiso       1.00
      C766          C  0.2177768  0.1941577  0.2588544    0.00000       Uiso       1.00
      C767          C  0.2290574  0.2045516  0.2405540    0.00000       Uiso       1.00
       O47          O  0.2510107  0.2415441  0.2281981    0.00000       Uiso       1.00
      H379          H  0.2226387  0.2382179  0.2698413    0.00000       Uiso       1.00
      H380          H  0.1990522  0.2235027  0.3010441    0.00000       Uiso       1.00
      H381          H  0.2189592  0.1799552  0.2558464    0.00000       Uiso       1.00
      C768          C  0.2229501  0.1289002  0.1742178    0.00000       Uiso       1.00
      C769          C  0.2268859  0.1429698  0.1780249    0.00000       Uiso       1.00
      C770          C  0.2378738  0.1538805  0.1604822    0.00000       Uiso       1.00
      C771          C  0.2426041  0.1670011  0.1645809    0.00000       Uiso       1.00
      C772          C  0.2376874  0.1683888  0.1861210    0.00000       Uiso       1.00
      C773          C  0.2268597  0.1570661  0.2035170    0.00000       Uiso       1.00
      C774          C  0.2198335  0.1457843  0.2001474    0.00000       Uiso       1.00
       O48          O  0.2293931  0.1238561  0.1535740    0.00000       Uiso       1.00
      H382          H  0.2426617  0.1522398  0.1436275    0.00000       Uiso       1.00
      H383          H  0.2502877  0.1758254  0.1507208    0.00000       Uiso       1.00
      H384          H  0.2250476  0.1558757  0.2195388    0.00000       Uiso       1.00
       B22          B  0.2215775  0.1081352  0.1601719    0.00000       Uiso       1.00
       B23          B  0.2667253  0.2427645  0.2046657    0.00000       Uiso       1.00
       B24          B  0.1320951  0.1531443  0.3843828    0.00000       Uiso       1.00
