data_110
_audit_creation_date              0000-00-00
_audit_creation_method            'LanYouShi'
_symmetry_space_group_name_H-M    'P1'
_cell_length_a                    38.1697006
_cell_length_b                    38.1697006
_cell_length_c                    38.1697006
_cell_angle_alpha                 90.0000000
_cell_angle_beta                  90.0000000
_cell_angle_gamma                 90.0000000
loop_
_atom_site_label
_atom_site_type_symbol
_atom_site_fract_x
_atom_site_fract_y
_atom_site_fract_z
_atom_site_U_iso_or_equiv
_atom_site_adp_type
_atom_site_occupancy
        C1          C  0.5804555  0.4195440  0.3949009    0.00000       Uiso       1.00
        C2          C  0.5491450  0.4062177  0.4084282    0.00000       Uiso       1.00
        C3          C  0.5313394  0.4239861  0.4350288    0.00000       Uiso       1.00
        C4          C  0.5937819  0.4508545  0.4084282    0.00000       Uiso       1.00
        C5          C  0.5760134  0.4686601  0.4350288    0.00000       Uiso       1.00
        C6          C  0.5449336  0.4550660  0.4500143    0.00000       Uiso       1.00
        H1          H  0.4936610  0.4136212  0.5566893    0.00000       Uiso       1.00
        H2          H  0.5863784  0.5063386  0.5566893    0.00000       Uiso       1.00
        H3          H  0.6193326  0.4620529  0.3977617    0.00000       Uiso       1.00
        H4          H  0.5379466  0.3806670  0.3977617    0.00000       Uiso       1.00
        C7          C  0.4195440  0.4195440  0.6050986    0.00000       Uiso       1.00
        C8          C  0.4508545  0.4062177  0.5915714    0.00000       Uiso       1.00
        C9          C  0.4686601  0.4239861  0.5649708    0.00000       Uiso       1.00
       C10          C  0.4062177  0.4508545  0.5915714    0.00000       Uiso       1.00
       C11          C  0.4239861  0.4686601  0.5649708    0.00000       Uiso       1.00
       C12          C  0.4550660  0.4550660  0.5499852    0.00000       Uiso       1.00
        H5          H  0.5063386  0.4136212  0.4433102    0.00000       Uiso       1.00
        H6          H  0.4136212  0.5063386  0.4433102    0.00000       Uiso       1.00
        H7          H  0.3806670  0.4620529  0.6022378    0.00000       Uiso       1.00
        H8          H  0.4620529  0.3806670  0.6022378    0.00000       Uiso       1.00
       C13          C  0.5804555  0.5804555  0.6050986    0.00000       Uiso       1.00
       C14          C  0.5491450  0.5937819  0.5915714    0.00000       Uiso       1.00
       C15          C  0.5313394  0.5760134  0.5649708    0.00000       Uiso       1.00
       C16          C  0.5937819  0.5491450  0.5915714    0.00000       Uiso       1.00
       C17          C  0.5760134  0.5313394  0.5649708    0.00000       Uiso       1.00
       C18          C  0.5449336  0.5449336  0.5499852    0.00000       Uiso       1.00
        H9          H  0.4936610  0.5863784  0.4433102    0.00000       Uiso       1.00
       H10          H  0.5863784  0.4936610  0.4433102    0.00000       Uiso       1.00
       H11          H  0.6193326  0.5379466  0.6022378    0.00000       Uiso       1.00
       H12          H  0.5379466  0.6193326  0.6022378    0.00000       Uiso       1.00
       C19          C  0.4195440  0.5804555  0.3949009    0.00000       Uiso       1.00
       C20          C  0.4508545  0.5937819  0.4084282    0.00000       Uiso       1.00
       C21          C  0.4686601  0.5760134  0.4350288    0.00000       Uiso       1.00
       C22          C  0.4062177  0.5491450  0.4084282    0.00000       Uiso       1.00
       C23          C  0.4239861  0.5313394  0.4350288    0.00000       Uiso       1.00
       C24          C  0.4550660  0.5449336  0.4500143    0.00000       Uiso       1.00
       H13          H  0.5063386  0.5863784  0.5566893    0.00000       Uiso       1.00
       H14          H  0.4136212  0.4936610  0.5566893    0.00000       Uiso       1.00
       H15          H  0.3806670  0.5379466  0.3977617    0.00000       Uiso       1.00
       H16          H  0.4620529  0.6193326  0.3977617    0.00000       Uiso       1.00
       C25          C  0.4999998  0.5462465  0.4999998    0.00000       Uiso       1.00
       C26          C  0.4999998  0.4537530  0.4999998    0.00000       Uiso       1.00
       C27          C  0.4767945  0.5232051  0.4755624    0.00000       Uiso       1.00
       C28          C  0.4537530  0.4999998  0.4999998    0.00000       Uiso       1.00
       H17          H  0.4367572  0.5183898  0.5146143    0.00000       Uiso       1.00
       H18          H  0.4367572  0.4816098  0.4853852    0.00000       Uiso       1.00
       C29          C  0.5232051  0.5232051  0.5244372    0.00000       Uiso       1.00
       C30          C  0.5462465  0.4999998  0.4999998    0.00000       Uiso       1.00
       H19          H  0.5632423  0.5183898  0.4853852    0.00000       Uiso       1.00
       H20          H  0.5632423  0.4816098  0.5146143    0.00000       Uiso       1.00
       C31          C  0.5232051  0.4767944  0.4755624    0.00000       Uiso       1.00
       H21          H  0.4816098  0.4367572  0.4853852    0.00000       Uiso       1.00
       C32          C  0.4999998  0.4999998  0.4528380    0.00000       Uiso       1.00
       H22          H  0.4833515  0.4833516  0.4355309    0.00000       Uiso       1.00
       H23          H  0.5166480  0.5166479  0.4355309    0.00000       Uiso       1.00
       C33          C  0.4999998  0.4999998  0.5471616    0.00000       Uiso       1.00
       H24          H  0.5183898  0.4367572  0.5146143    0.00000       Uiso       1.00
       C34          C  0.4767944  0.4767945  0.5244372    0.00000       Uiso       1.00
       H25          H  0.5166479  0.4833516  0.5644687    0.00000       Uiso       1.00
       H26          H  0.4833517  0.5166480  0.5644686    0.00000       Uiso       1.00
       H27          H  0.4816098  0.5632423  0.5146143    0.00000       Uiso       1.00
       H28          H  0.5183898  0.5632423  0.4853852    0.00000       Uiso       1.00
       C35          C  0.1050988  0.5804555  0.0804558    0.00000       Uiso       1.00
       C36          C  0.0915716  0.5491450  0.0937821    0.00000       Uiso       1.00
       C37          C  0.0649710  0.5313394  0.0760137    0.00000       Uiso       1.00
       C38          C  0.0915716  0.5937819  0.0491453    0.00000       Uiso       1.00
       C39          C  0.0649710  0.5760134  0.0313396    0.00000       Uiso       1.00
       C40          C  0.0499854  0.5449336  0.0449338    0.00000       Uiso       1.00
       H29          H  0.9433100  0.4936610  0.0863786    0.00000       Uiso       1.00
       H30          H  0.9433100  0.5863784  0.9936607    0.00000       Uiso       1.00
       H31          H  0.1022380  0.6193326  0.0379468    0.00000       Uiso       1.00
       H32          H  0.1022380  0.5379466  0.1193328    0.00000       Uiso       1.00
       C41          C  0.8949006  0.4195440  0.0804558    0.00000       Uiso       1.00
       C42          C  0.9084278  0.4508545  0.0937821    0.00000       Uiso       1.00
       C43          C  0.9350285  0.4686602  0.0760137    0.00000       Uiso       1.00
       C44          C  0.9084278  0.4062177  0.0491453    0.00000       Uiso       1.00
       C45          C  0.9350285  0.4239861  0.0313396    0.00000       Uiso       1.00
       C46          C  0.9500141  0.4550660  0.0449338    0.00000       Uiso       1.00
       H33          H  0.0566895  0.5063386  0.0863786    0.00000       Uiso       1.00
       H34          H  0.0566895  0.4136212  0.9936607    0.00000       Uiso       1.00
       H35          H  0.8977614  0.3806670  0.0379468    0.00000       Uiso       1.00
       H36          H  0.8977614  0.4620529  0.1193328    0.00000       Uiso       1.00
       C47          C  0.8949006  0.5804555  0.9195437    0.00000       Uiso       1.00
       C48          C  0.9084278  0.5491450  0.9062175    0.00000       Uiso       1.00
       C49          C  0.9350285  0.5313394  0.9239859    0.00000       Uiso       1.00
       C50          C  0.9084278  0.5937819  0.9508543    0.00000       Uiso       1.00
       C51          C  0.9350285  0.5760134  0.9686599    0.00000       Uiso       1.00
       C52          C  0.9500141  0.5449336  0.9550658    0.00000       Uiso       1.00
       H37          H  0.0566895  0.4936610  0.9136209    0.00000       Uiso       1.00
       H38          H  0.0566895  0.5863784  0.0063388    0.00000       Uiso       1.00
       H39          H  0.8977614  0.6193326  0.9620527    0.00000       Uiso       1.00
       H40          H  0.8977615  0.5379466  0.8806667    0.00000       Uiso       1.00
       C53          C  0.1050988  0.4195440  0.9195437    0.00000       Uiso       1.00
       C54          C  0.0915716  0.4508545  0.9062175    0.00000       Uiso       1.00
       C55          C  0.0649710  0.4686602  0.9239859    0.00000       Uiso       1.00
       C56          C  0.0915716  0.4062177  0.9508543    0.00000       Uiso       1.00
       C57          C  0.0649710  0.4239861  0.9686600    0.00000       Uiso       1.00
       C58          C  0.0499854  0.4550660  0.9550658    0.00000       Uiso       1.00
       H41          H  0.9433100  0.5063386  0.9136209    0.00000       Uiso       1.00
       H42          H  0.9433100  0.4136212  0.0063388    0.00000       Uiso       1.00
       H43          H  0.1022380  0.3806670  0.9620527    0.00000       Uiso       1.00
       H44          H  0.1022380  0.4620529  0.8806667    0.00000       Uiso       1.00
       C59          C  0.0000000  0.4999998  0.9537528    0.00000       Uiso       1.00
       C60          C  0.9999995  0.4999998  0.0462467    0.00000       Uiso       1.00
       C61          C  0.0244374  0.4767945  0.9767942    0.00000       Uiso       1.00
       C62          C  0.9999995  0.4537530  0.0000000    0.00000       Uiso       1.00
       H45          H  0.9853850  0.4367572  0.9816096    0.00000       Uiso       1.00
       H46          H  0.0146145  0.4367572  0.0183900    0.00000       Uiso       1.00
       C63          C  0.9755622  0.5232051  0.9767942    0.00000       Uiso       1.00
       C64          C  0.9999995  0.5462465  0.0000000    0.00000       Uiso       1.00
       H47          H  0.0146145  0.5632423  0.9816096    0.00000       Uiso       1.00
       H48          H  0.9853849  0.5632423  0.0183900    0.00000       Uiso       1.00
       C65          C  0.0244374  0.5232051  0.0232053    0.00000       Uiso       1.00
       H49          H  0.0146145  0.4816098  0.0632425    0.00000       Uiso       1.00
       C66          C  0.0471618  0.4999998  0.0000000    0.00000       Uiso       1.00
       H50          H  0.0644689  0.4833516  0.0166481    0.00000       Uiso       1.00
       H51          H  0.0644689  0.5166480  0.9833514    0.00000       Uiso       1.00
       C67          C  0.9528377  0.4999998  0.9999995    0.00000       Uiso       1.00
       H52          H  0.9853849  0.5183898  0.0632425    0.00000       Uiso       1.00
       C68          C  0.9755622  0.4767945  0.0232053    0.00000       Uiso       1.00
       H53          H  0.9355306  0.5166479  0.0166482    0.00000       Uiso       1.00
       H54          H  0.9355306  0.4833517  0.9833513    0.00000       Uiso       1.00
       H55          H  0.9853850  0.4816098  0.9367570    0.00000       Uiso       1.00
       H56          H  0.0146146  0.5183898  0.9367570    0.00000       Uiso       1.00
       C69          C  0.4195440  0.1050989  0.9195437    0.00000       Uiso       1.00
       C70          C  0.4062177  0.0915716  0.9508543    0.00000       Uiso       1.00
       C71          C  0.4239861  0.0649710  0.9686599    0.00000       Uiso       1.00
       C72          C  0.4508545  0.0915716  0.9062174    0.00000       Uiso       1.00
       C73          C  0.4686601  0.0649710  0.9239859    0.00000       Uiso       1.00
       C74          C  0.4550660  0.0499854  0.9550657    0.00000       Uiso       1.00
       H57          H  0.4136211  0.9433100  0.0063388    0.00000       Uiso       1.00
       H58          H  0.5063386  0.9433100  0.9136209    0.00000       Uiso       1.00
       H59          H  0.4620529  0.1022381  0.8806667    0.00000       Uiso       1.00
       H60          H  0.3806669  0.1022381  0.9620527    0.00000       Uiso       1.00
       C75          C  0.4195440  0.8949007  0.0804558    0.00000       Uiso       1.00
       C76          C  0.4062177  0.9084278  0.0491452    0.00000       Uiso       1.00
       C77          C  0.4239861  0.9350285  0.0313396    0.00000       Uiso       1.00
       C78          C  0.4508545  0.9084278  0.0937821    0.00000       Uiso       1.00
       C79          C  0.4686601  0.9350285  0.0760137    0.00000       Uiso       1.00
       C80          C  0.4550659  0.9500141  0.0449338    0.00000       Uiso       1.00
       H61          H  0.4136211  0.0566895  0.9936607    0.00000       Uiso       1.00
       H62          H  0.5063386  0.0566895  0.0863786    0.00000       Uiso       1.00
       H63          H  0.4620529  0.8977615  0.1193328    0.00000       Uiso       1.00
       H64          H  0.3806669  0.8977615  0.0379468    0.00000       Uiso       1.00
       C81          C  0.5804555  0.8949007  0.9195437    0.00000       Uiso       1.00
       C82          C  0.5937819  0.9084278  0.9508543    0.00000       Uiso       1.00
       C83          C  0.5760134  0.9350285  0.9686599    0.00000       Uiso       1.00
       C84          C  0.5491450  0.9084278  0.9062174    0.00000       Uiso       1.00
       C85          C  0.5313394  0.9350285  0.9239859    0.00000       Uiso       1.00
       C86          C  0.5449336  0.9500141  0.9550658    0.00000       Uiso       1.00
       H65          H  0.5863783  0.0566895  0.0063388    0.00000       Uiso       1.00
       H66          H  0.4936610  0.0566895  0.9136209    0.00000       Uiso       1.00
       H67          H  0.5379466  0.8977615  0.8806667    0.00000       Uiso       1.00
       H68          H  0.6193326  0.8977615  0.9620527    0.00000       Uiso       1.00
       C87          C  0.5804555  0.1050989  0.0804558    0.00000       Uiso       1.00
       C88          C  0.5937819  0.0915716  0.0491452    0.00000       Uiso       1.00
       C89          C  0.5760134  0.0649710  0.0313396    0.00000       Uiso       1.00
       C90          C  0.5491450  0.0915716  0.0937821    0.00000       Uiso       1.00
       C91          C  0.5313394  0.0649710  0.0760137    0.00000       Uiso       1.00
       C92          C  0.5449336  0.0499854  0.0449338    0.00000       Uiso       1.00
       H69          H  0.5863783  0.9433100  0.9936607    0.00000       Uiso       1.00
       H70          H  0.4936609  0.9433100  0.0863786    0.00000       Uiso       1.00
       H71          H  0.5379466  0.1022381  0.1193328    0.00000       Uiso       1.00
       H72          H  0.6193326  0.1022381  0.0379468    0.00000       Uiso       1.00
       C93          C  0.5462465  0.0000000  0.9999995    0.00000       Uiso       1.00
       C94          C  0.4537530  0.0000000  0.9999995    0.00000       Uiso       1.00
       C95          C  0.5232051  0.0244374  0.0232053    0.00000       Uiso       1.00
       C96          C  0.4999998  0.0000000  0.0462467    0.00000       Uiso       1.00
       H73          H  0.5183897  0.9853850  0.0632425    0.00000       Uiso       1.00
       H74          H  0.4816098  0.0146146  0.0632425    0.00000       Uiso       1.00
       C97          C  0.5232051  0.9755622  0.9767942    0.00000       Uiso       1.00
       C98          C  0.4999998  0.9999995  0.9537528    0.00000       Uiso       1.00
       H75          H  0.5183898  0.0146145  0.9367570    0.00000       Uiso       1.00
       H76          H  0.4816098  0.9853849  0.9367570    0.00000       Uiso       1.00
       C99          C  0.4767944  0.0244374  0.9767942    0.00000       Uiso       1.00
       H77          H  0.4367572  0.0146146  0.0183899    0.00000       Uiso       1.00
      C100          C  0.4999998  0.0471618  0.9999995    0.00000       Uiso       1.00
       H78          H  0.4833516  0.0644689  0.0166482    0.00000       Uiso       1.00
       H79          H  0.5166479  0.0644689  0.9833513    0.00000       Uiso       1.00
      C101          C  0.4999998  0.9528378  0.9999995    0.00000       Uiso       1.00
       H80          H  0.4367572  0.9853850  0.9816096    0.00000       Uiso       1.00
      C102          C  0.4767944  0.9755622  0.0232053    0.00000       Uiso       1.00
       H81          H  0.4833516  0.9355306  0.9833514    0.00000       Uiso       1.00
       H82          H  0.5166480  0.9355306  0.0166481    0.00000       Uiso       1.00
       H83          H  0.5632423  0.9853850  0.0183899    0.00000       Uiso       1.00
       H84          H  0.5632423  0.0146146  0.9816096    0.00000       Uiso       1.00
      C103          C  0.6355597  0.6105310  0.6791776    0.00000       Uiso       1.00
      C104          C  0.6629419  0.6107208  0.7036369    0.00000       Uiso       1.00
      C105          C  0.6907541  0.5867605  0.7014391    0.00000       Uiso       1.00
      C106          C  0.7170060  0.5862072  0.7271648    0.00000       Uiso       1.00
      C107          C  0.7149985  0.6083218  0.7567973    0.00000       Uiso       1.00
      C108          C  0.6864408  0.6319045  0.7587464    0.00000       Uiso       1.00
      C109          C  0.6617184  0.6352958  0.7314605    0.00000       Uiso       1.00
        O1          O  0.6320680  0.5873955  0.6512455    0.00000       Uiso       1.00
       H85          H  0.6920539  0.5684464  0.6796164    0.00000       Uiso       1.00
       H86          H  0.7385036  0.5680190  0.7236333    0.00000       Uiso       1.00
       H87          H  0.6820693  0.6462026  0.7826248    0.00000       Uiso       1.00
      C110          C  0.6106066  0.8208610  0.8643945    0.00000       Uiso       1.00
      C111          C  0.6108110  0.7964119  0.8370009    0.00000       Uiso       1.00
      C112          C  0.5868417  0.7985938  0.8091942    0.00000       Uiso       1.00
      C113          C  0.5862873  0.7728593  0.7829502    0.00000       Uiso       1.00
      C114          C  0.6084028  0.7432285  0.7849637    0.00000       Uiso       1.00
      C115          C  0.6320056  0.7413073  0.8135093    0.00000       Uiso       1.00
      C116          C  0.6353995  0.7686038  0.8382197    0.00000       Uiso       1.00
        O2          O  0.5874376  0.8487637  0.8679056    0.00000       Uiso       1.00
       H88          H  0.5685091  0.8203989  0.8078979    0.00000       Uiso       1.00
       H89          H  0.5680878  0.7763808  0.7614611    0.00000       Uiso       1.00
       H90          H  0.6463117  0.7174407  0.8178961    0.00000       Uiso       1.00
      C117          C  0.8208497  0.6355750  0.8894066    0.00000       Uiso       1.00
      C118          C  0.7964194  0.6629794  0.8891850    0.00000       Uiso       1.00
      C119          C  0.7986393  0.6908047  0.9131262    0.00000       Uiso       1.00
      C120          C  0.7729324  0.7170784  0.9136623    0.00000       Uiso       1.00
      C121          C  0.7432987  0.7150769  0.8915473    0.00000       Uiso       1.00
      C122          C  0.7413393  0.6865116  0.8679686    0.00000       Uiso       1.00
      C123          C  0.7686033  0.6617607  0.8646045    0.00000       Uiso       1.00
        O3          O  0.8487745  0.6320868  0.9125492    0.00000       Uiso       1.00
       H91          H  0.8204588  0.6920828  0.9314485    0.00000       Uiso       1.00
       H92          H  0.7764719  0.7385790  0.9318470    0.00000       Uiso       1.00
       H93          H  0.7174649  0.6821486  0.8536614    0.00000       Uiso       1.00
      C124          C  0.8181505  0.6077647  0.8667681    0.00000       Uiso       1.00
      C125          C  0.7921290  0.6064731  0.8408969    0.00000       Uiso       1.00
      C126          C  0.7899831  0.5783849  0.8172528    0.00000       Uiso       1.00
      C127          C  0.7645617  0.5782250  0.7906992    0.00000       Uiso       1.00
      C128          C  0.7419475  0.6071491  0.7859135    0.00000       Uiso       1.00
      C129          C  0.7451091  0.6355351  0.8095644    0.00000       Uiso       1.00
      C130          C  0.7679974  0.6346064  0.8385875    0.00000       Uiso       1.00
        O4          O  0.8440882  0.5827677  0.8721957    0.00000       Uiso       1.00
       H94          H  0.8080574  0.5564526  0.8195406    0.00000       Uiso       1.00
       H95          H  0.7631706  0.5553533  0.7739599    0.00000       Uiso       1.00
       H96          H  0.7311592  0.6594234  0.8042580    0.00000       Uiso       1.00
      C131          C  0.6332870  0.8181957  0.8921766    0.00000       Uiso       1.00
      C132          C  0.6591772  0.7921917  0.8934485    0.00000       Uiso       1.00
      C133          C  0.6828731  0.7900856  0.9214975    0.00000       Uiso       1.00
      C134          C  0.7094361  0.7646759  0.9216381    0.00000       Uiso       1.00
      C135          C  0.7141783  0.7420239  0.8927343    0.00000       Uiso       1.00
      C136          C  0.6904776  0.7451509  0.8643859    0.00000       Uiso       1.00
      C137          C  0.6614522  0.7680334  0.8653370    0.00000       Uiso       1.00
        O5          O  0.6278678  0.8441384  0.9171686    0.00000       Uiso       1.00
       H97          H  0.6806090  0.8081734  0.9434238    0.00000       Uiso       1.00
       H98          H  0.7262092  0.7633201  0.9444880    0.00000       Uiso       1.00
       H99          H  0.6957471  0.7311913  0.8404953    0.00000       Uiso       1.00
      C138          C  0.6077773  0.6332127  0.6818495    0.00000       Uiso       1.00
      C139          C  0.6064982  0.6590844  0.7078681    0.00000       Uiso       1.00
      C140          C  0.5784541  0.6827832  0.7099645    0.00000       Uiso       1.00
      C141          C  0.5783114  0.7093511  0.7353684    0.00000       Uiso       1.00
      C142          C  0.6072076  0.7140856  0.7580368    0.00000       Uiso       1.00
      C143          C  0.6355488  0.6903687  0.7549295    0.00000       Uiso       1.00
      C144          C  0.6346003  0.6613470  0.7320389    0.00000       Uiso       1.00
        O6          O  0.5827997  0.6278247  0.6558862    0.00000       Uiso       1.00
      H100          H  0.5565377  0.6805194  0.6918631    0.00000       Uiso       1.00
      H101          H  0.5554680  0.7261349  0.7367023    0.00000       Uiso       1.00
      H102          H  0.6594354  0.6956282  0.7689058    0.00000       Uiso       1.00
        B1          B  0.5984727  0.5986375  0.6366384    0.00000       Uiso       1.00
        B2          B  0.5986605  0.8633661  0.9015090    0.00000       Uiso       1.00
        B3          B  0.8633537  0.5984644  0.9013573    0.00000       Uiso       1.00
      C145          C  0.3644398  0.3894685  0.6791776    0.00000       Uiso       1.00
      C146          C  0.3370576  0.3892787  0.7036369    0.00000       Uiso       1.00
      C147          C  0.3092455  0.4132391  0.7014391    0.00000       Uiso       1.00
      C148          C  0.2829935  0.4137924  0.7271648    0.00000       Uiso       1.00
      C149          C  0.2850010  0.3916778  0.7567973    0.00000       Uiso       1.00
      C150          C  0.3135587  0.3680951  0.7587464    0.00000       Uiso       1.00
      C151          C  0.3382811  0.3647037  0.7314604    0.00000       Uiso       1.00
        O7          O  0.3679316  0.4126040  0.6512455    0.00000       Uiso       1.00
      H103          H  0.3079456  0.4315532  0.6796164    0.00000       Uiso       1.00
      H104          H  0.2614959  0.4319806  0.7236333    0.00000       Uiso       1.00
      H105          H  0.3179302  0.3537969  0.7826248    0.00000       Uiso       1.00
      C152          C  0.3893929  0.1791385  0.8643945    0.00000       Uiso       1.00
      C153          C  0.3891885  0.2035876  0.8370009    0.00000       Uiso       1.00
      C154          C  0.4131578  0.2014057  0.8091942    0.00000       Uiso       1.00
      C155          C  0.4137122  0.2271402  0.7829502    0.00000       Uiso       1.00
      C156          C  0.3915967  0.2567710  0.7849637    0.00000       Uiso       1.00
      C157          C  0.3679939  0.2586923  0.8135093    0.00000       Uiso       1.00
      C158          C  0.3646000  0.2313957  0.8382197    0.00000       Uiso       1.00
        O8          O  0.4125619  0.1512358  0.8679056    0.00000       Uiso       1.00
      H106          H  0.4314904  0.1796007  0.8078979    0.00000       Uiso       1.00
      H107          H  0.4319118  0.2236187  0.7614611    0.00000       Uiso       1.00
      H108          H  0.3536879  0.2825588  0.8178961    0.00000       Uiso       1.00
      C159          C  0.1791499  0.3644245  0.8894066    0.00000       Uiso       1.00
      C160          C  0.2035801  0.3370202  0.8891850    0.00000       Uiso       1.00
      C161          C  0.2013602  0.3091948  0.9131262    0.00000       Uiso       1.00
      C162          C  0.2270671  0.2829211  0.9136623    0.00000       Uiso       1.00
      C163          C  0.2567008  0.2849227  0.8915473    0.00000       Uiso       1.00
      C164          C  0.2586603  0.3134879  0.8679686    0.00000       Uiso       1.00
      C165          C  0.2313962  0.3382389  0.8646045    0.00000       Uiso       1.00
        O9          O  0.1512250  0.3679127  0.9125491    0.00000       Uiso       1.00
      H109          H  0.1795407  0.3079168  0.9314485    0.00000       Uiso       1.00
      H110          H  0.2235277  0.2614205  0.9318470    0.00000       Uiso       1.00
      H111          H  0.2825346  0.3178510  0.8536614    0.00000       Uiso       1.00
      C166          C  0.1818490  0.3922347  0.8667681    0.00000       Uiso       1.00
      C167          C  0.2078705  0.3935265  0.8408969    0.00000       Uiso       1.00
      C168          C  0.2100164  0.4216146  0.8172528    0.00000       Uiso       1.00
      C169          C  0.2354378  0.4217746  0.7906992    0.00000       Uiso       1.00
      C170          C  0.2580520  0.3928504  0.7859135    0.00000       Uiso       1.00
      C171          C  0.2548904  0.3644644  0.8095644    0.00000       Uiso       1.00
      C172          C  0.2320021  0.3653932  0.8385875    0.00000       Uiso       1.00
       O10          O  0.1559113  0.4172318  0.8721957    0.00000       Uiso       1.00
      H112          H  0.1919421  0.4435469  0.8195406    0.00000       Uiso       1.00
      H113          H  0.2368289  0.4446462  0.7739599    0.00000       Uiso       1.00
      H114          H  0.2688404  0.3405762  0.8042580    0.00000       Uiso       1.00
      C173          C  0.3667125  0.1818038  0.8921766    0.00000       Uiso       1.00
      C174          C  0.3408222  0.2078078  0.8934485    0.00000       Uiso       1.00
      C175          C  0.3171264  0.2099139  0.9214975    0.00000       Uiso       1.00
      C176          C  0.2905635  0.2353236  0.9216381    0.00000       Uiso       1.00
      C177          C  0.2858212  0.2579756  0.8927343    0.00000       Uiso       1.00
      C178          C  0.3095219  0.2548487  0.8643859    0.00000       Uiso       1.00
      C179          C  0.3385472  0.2319661  0.8653370    0.00000       Uiso       1.00
       O11          O  0.3721317  0.1558611  0.9171686    0.00000       Uiso       1.00
      H115          H  0.3193905  0.1918262  0.9434238    0.00000       Uiso       1.00
      H116          H  0.2737903  0.2366794  0.9444880    0.00000       Uiso       1.00
      H117          H  0.3042524  0.2688083  0.8404953    0.00000       Uiso       1.00
      C180          C  0.3922222  0.3667868  0.6818495    0.00000       Uiso       1.00
      C181          C  0.3935013  0.3409151  0.7078681    0.00000       Uiso       1.00
      C182          C  0.4215454  0.3172163  0.7099645    0.00000       Uiso       1.00
      C183          C  0.4216882  0.2906484  0.7353684    0.00000       Uiso       1.00
      C184          C  0.3927919  0.2859139  0.7580368    0.00000       Uiso       1.00
      C185          C  0.3644507  0.3096309  0.7549295    0.00000       Uiso       1.00
      C186          C  0.3653992  0.3386525  0.7320389    0.00000       Uiso       1.00
       O12          O  0.4171998  0.3721748  0.6558862    0.00000       Uiso       1.00
      H118          H  0.4434618  0.3194801  0.6918631    0.00000       Uiso       1.00
      H119          H  0.4445314  0.2738646  0.7367023    0.00000       Uiso       1.00
      H120          H  0.3405641  0.3043713  0.7689058    0.00000       Uiso       1.00
        B4          B  0.4015269  0.4013621  0.6366384    0.00000       Uiso       1.00
        B5          B  0.4013391  0.1366334  0.9015090    0.00000       Uiso       1.00
        B6          B  0.1366458  0.4015352  0.9013573    0.00000       Uiso       1.00
      C187          C  0.3644398  0.6105310  0.3208219    0.00000       Uiso       1.00
      C188          C  0.3370576  0.6107208  0.2963627    0.00000       Uiso       1.00
      C189          C  0.3092455  0.5867605  0.2985604    0.00000       Uiso       1.00
      C190          C  0.2829935  0.5862072  0.2728347    0.00000       Uiso       1.00
      C191          C  0.2850011  0.6083218  0.2432023    0.00000       Uiso       1.00
      C192          C  0.3135587  0.6319045  0.2412531    0.00000       Uiso       1.00
      C193          C  0.3382811  0.6352958  0.2685391    0.00000       Uiso       1.00
       O13          O  0.3679316  0.5873955  0.3487540    0.00000       Uiso       1.00
      H121          H  0.3079457  0.5684463  0.3203832    0.00000       Uiso       1.00
      H122          H  0.2614959  0.5680190  0.2763662    0.00000       Uiso       1.00
      H123          H  0.3179302  0.6462026  0.2173748    0.00000       Uiso       1.00
      C194          C  0.3893929  0.8208610  0.1356051    0.00000       Uiso       1.00
      C195          C  0.3891885  0.7964119  0.1629986    0.00000       Uiso       1.00
      C196          C  0.4131578  0.7985938  0.1908054    0.00000       Uiso       1.00
      C197          C  0.4137122  0.7728593  0.2170494    0.00000       Uiso       1.00
      C198          C  0.3915967  0.7432285  0.2150358    0.00000       Uiso       1.00
      C199          C  0.3679940  0.7413073  0.1864902    0.00000       Uiso       1.00
      C200          C  0.3646000  0.7686038  0.1617799    0.00000       Uiso       1.00
       O14          O  0.4125619  0.8487637  0.1320939    0.00000       Uiso       1.00
      H124          H  0.4314904  0.8203989  0.1921016    0.00000       Uiso       1.00
      H125          H  0.4319118  0.7763808  0.2385385    0.00000       Uiso       1.00
      H126          H  0.3536879  0.7174407  0.1821034    0.00000       Uiso       1.00
      C201          C  0.1791499  0.6355750  0.1105930    0.00000       Uiso       1.00
      C202          C  0.2035801  0.6629794  0.1108145    0.00000       Uiso       1.00
      C203          C  0.2013603  0.6908047  0.0868732    0.00000       Uiso       1.00
      C204          C  0.2270671  0.7170784  0.0863372    0.00000       Uiso       1.00
      C205          C  0.2567008  0.7150769  0.1084522    0.00000       Uiso       1.00
      C206          C  0.2586603  0.6865116  0.1320310    0.00000       Uiso       1.00
      C207          C  0.2313962  0.6617606  0.1353951    0.00000       Uiso       1.00
       O15          O  0.1512250  0.6320868  0.0874504    0.00000       Uiso       1.00
      H127          H  0.1795407  0.6920828  0.0685511    0.00000       Uiso       1.00
      H128          H  0.2235277  0.7385790  0.0681526    0.00000       Uiso       1.00
      H129          H  0.2825346  0.6821486  0.1463382    0.00000       Uiso       1.00
      C208          C  0.1818490  0.6077647  0.1332314    0.00000       Uiso       1.00
      C209          C  0.2078705  0.6064731  0.1591027    0.00000       Uiso       1.00
      C210          C  0.2100164  0.5783849  0.1827468    0.00000       Uiso       1.00
      C211          C  0.2354379  0.5782250  0.2093003    0.00000       Uiso       1.00
      C212          C  0.2580520  0.6071491  0.2140860    0.00000       Uiso       1.00
      C213          C  0.2548905  0.6355351  0.1904351    0.00000       Uiso       1.00
      C214          C  0.2320021  0.6346064  0.1614120    0.00000       Uiso       1.00
       O16          O  0.1559113  0.5827677  0.1278038    0.00000       Uiso       1.00
      H130          H  0.1919421  0.5564526  0.1804589    0.00000       Uiso       1.00
      H131          H  0.2368289  0.5553533  0.2260396    0.00000       Uiso       1.00
      H132          H  0.2688404  0.6594234  0.1957415    0.00000       Uiso       1.00
      C215          C  0.3667125  0.8181957  0.1078230    0.00000       Uiso       1.00
      C216          C  0.3408222  0.7921917  0.1065511    0.00000       Uiso       1.00
      C217          C  0.3171264  0.7900856  0.0785021    0.00000       Uiso       1.00
      C218          C  0.2905635  0.7646759  0.0783615    0.00000       Uiso       1.00
      C219          C  0.2858213  0.7420239  0.1072652    0.00000       Uiso       1.00
      C220          C  0.3095219  0.7451509  0.1356136    0.00000       Uiso       1.00
      C221          C  0.3385473  0.7680334  0.1346625    0.00000       Uiso       1.00
       O17          O  0.3721317  0.8441384  0.0828309    0.00000       Uiso       1.00
      H133          H  0.3193905  0.8081734  0.0565757    0.00000       Uiso       1.00
      H134          H  0.2737903  0.7633201  0.0555115    0.00000       Uiso       1.00
      H135          H  0.3042524  0.7311913  0.1595042    0.00000       Uiso       1.00
      C222          C  0.3922222  0.6332127  0.3181500    0.00000       Uiso       1.00
      C223          C  0.3935013  0.6590844  0.2921314    0.00000       Uiso       1.00
      C224          C  0.4215454  0.6827832  0.2900350    0.00000       Uiso       1.00
      C225          C  0.4216882  0.7093511  0.2646311    0.00000       Uiso       1.00
      C226          C  0.3927919  0.7140856  0.2419627    0.00000       Uiso       1.00
      C227          C  0.3644507  0.6903686  0.2450701    0.00000       Uiso       1.00
      C228          C  0.3653992  0.6613470  0.2679606    0.00000       Uiso       1.00
       O18          O  0.4171999  0.6278247  0.3441133    0.00000       Uiso       1.00
      H136          H  0.4434618  0.6805194  0.3081365    0.00000       Uiso       1.00
      H137          H  0.4445315  0.7261349  0.2632973    0.00000       Uiso       1.00
      H138          H  0.3405641  0.6956282  0.2310938    0.00000       Uiso       1.00
        B7          B  0.4015269  0.5986375  0.3633611    0.00000       Uiso       1.00
        B8          B  0.4013391  0.8633661  0.0984906    0.00000       Uiso       1.00
        B9          B  0.1366458  0.5984643  0.0986422    0.00000       Uiso       1.00
      C229          C  0.6355597  0.3894685  0.3208219    0.00000       Uiso       1.00
      C230          C  0.6629419  0.3892787  0.2963627    0.00000       Uiso       1.00
      C231          C  0.6907541  0.4132390  0.2985604    0.00000       Uiso       1.00
      C232          C  0.7170060  0.4137924  0.2728347    0.00000       Uiso       1.00
      C233          C  0.7149985  0.3916777  0.2432023    0.00000       Uiso       1.00
      C234          C  0.6864408  0.3680951  0.2412531    0.00000       Uiso       1.00
      C235          C  0.6617184  0.3647037  0.2685391    0.00000       Uiso       1.00
       O19          O  0.6320680  0.4126040  0.3487540    0.00000       Uiso       1.00
      H139          H  0.6920539  0.4315532  0.3203832    0.00000       Uiso       1.00
      H140          H  0.7385037  0.4319805  0.2763662    0.00000       Uiso       1.00
      H141          H  0.6820693  0.3537969  0.2173748    0.00000       Uiso       1.00
      C236          C  0.6106066  0.1791385  0.1356051    0.00000       Uiso       1.00
      C237          C  0.6108111  0.2035876  0.1629986    0.00000       Uiso       1.00
      C238          C  0.5868417  0.2014057  0.1908054    0.00000       Uiso       1.00
      C239          C  0.5862873  0.2271402  0.2170494    0.00000       Uiso       1.00
      C240          C  0.6084028  0.2567710  0.2150358    0.00000       Uiso       1.00
      C241          C  0.6320056  0.2586923  0.1864902    0.00000       Uiso       1.00
      C242          C  0.6353995  0.2313957  0.1617799    0.00000       Uiso       1.00
       O20          O  0.5874376  0.1512358  0.1320939    0.00000       Uiso       1.00
      H142          H  0.5685091  0.1796007  0.1921016    0.00000       Uiso       1.00
      H143          H  0.5680878  0.2236187  0.2385385    0.00000       Uiso       1.00
      H144          H  0.6463117  0.2825588  0.1821034    0.00000       Uiso       1.00
      C243          C  0.8208497  0.3644245  0.1105930    0.00000       Uiso       1.00
      C244          C  0.7964195  0.3370202  0.1108145    0.00000       Uiso       1.00
      C245          C  0.7986393  0.3091948  0.0868733    0.00000       Uiso       1.00
      C246          C  0.7729324  0.2829211  0.0863372    0.00000       Uiso       1.00
      C247          C  0.7432987  0.2849227  0.1084522    0.00000       Uiso       1.00
      C248          C  0.7413393  0.3134879  0.1320310    0.00000       Uiso       1.00
      C249          C  0.7686033  0.3382389  0.1353951    0.00000       Uiso       1.00
       O21          O  0.8487745  0.3679127  0.0874504    0.00000       Uiso       1.00
      H145          H  0.8204589  0.3079168  0.0685511    0.00000       Uiso       1.00
      H146          H  0.7764719  0.2614205  0.0681526    0.00000       Uiso       1.00
      H147          H  0.7174649  0.3178509  0.1463382    0.00000       Uiso       1.00
      C250          C  0.8181505  0.3922347  0.1332314    0.00000       Uiso       1.00
      C251          C  0.7921290  0.3935265  0.1591027    0.00000       Uiso       1.00
      C252          C  0.7899831  0.4216146  0.1827468    0.00000       Uiso       1.00
      C253          C  0.7645617  0.4217745  0.2093003    0.00000       Uiso       1.00
      C254          C  0.7419475  0.3928504  0.2140860    0.00000       Uiso       1.00
      C255          C  0.7451091  0.3644644  0.1904351    0.00000       Uiso       1.00
      C256          C  0.7679974  0.3653932  0.1614120    0.00000       Uiso       1.00
       O22          O  0.8440883  0.4172318  0.1278038    0.00000       Uiso       1.00
      H148          H  0.8080574  0.4435469  0.1804589    0.00000       Uiso       1.00
      H149          H  0.7631707  0.4446462  0.2260396    0.00000       Uiso       1.00
      H150          H  0.7311592  0.3405762  0.1957415    0.00000       Uiso       1.00
      C257          C  0.6332870  0.1818038  0.1078230    0.00000       Uiso       1.00
      C258          C  0.6591772  0.2078078  0.1065511    0.00000       Uiso       1.00
      C259          C  0.6828731  0.2099139  0.0785021    0.00000       Uiso       1.00
      C260          C  0.7094361  0.2353236  0.0783615    0.00000       Uiso       1.00
      C261          C  0.7141783  0.2579756  0.1072652    0.00000       Uiso       1.00
      C262          C  0.6904776  0.2548486  0.1356137    0.00000       Uiso       1.00
      C263          C  0.6614522  0.2319661  0.1346625    0.00000       Uiso       1.00
       O23          O  0.6278678  0.1558611  0.0828309    0.00000       Uiso       1.00
      H151          H  0.6806090  0.1918262  0.0565757    0.00000       Uiso       1.00
      H152          H  0.7262092  0.2366794  0.0555115    0.00000       Uiso       1.00
      H153          H  0.6957471  0.2688083  0.1595042    0.00000       Uiso       1.00
      C264          C  0.6077773  0.3667868  0.3181500    0.00000       Uiso       1.00
      C265          C  0.6064982  0.3409151  0.2921315    0.00000       Uiso       1.00
      C266          C  0.5784541  0.3172163  0.2900350    0.00000       Uiso       1.00
      C267          C  0.5783114  0.2906484  0.2646311    0.00000       Uiso       1.00
      C268          C  0.6072076  0.2859139  0.2419627    0.00000       Uiso       1.00
      C269          C  0.6355488  0.3096309  0.2450701    0.00000       Uiso       1.00
      C270          C  0.6346003  0.3386525  0.2679606    0.00000       Uiso       1.00
       O24          O  0.5827997  0.3721748  0.3441133    0.00000       Uiso       1.00
      H154          H  0.5565377  0.3194801  0.3081365    0.00000       Uiso       1.00
      H155          H  0.5554680  0.2738646  0.2632973    0.00000       Uiso       1.00
      H156          H  0.6594354  0.3043713  0.2310938    0.00000       Uiso       1.00
       B10          B  0.5984727  0.4013621  0.3633612    0.00000       Uiso       1.00
       B11          B  0.5986605  0.1366334  0.0984906    0.00000       Uiso       1.00
       B12          B  0.8633537  0.4015352  0.0986422    0.00000       Uiso       1.00
