data_111
_audit_creation_date              0000-00-00
_audit_creation_method            'LanYouShi'
_symmetry_space_group_name_H-M    'P1'
_cell_length_a                    58.0844002
_cell_length_b                    58.0441017
_cell_length_c                    58.0844002
_cell_angle_alpha                 119.9770966
_cell_angle_beta                  119.9782028
_cell_angle_gamma                 60.0012016
loop_
_atom_site_label
_atom_site_type_symbol
_atom_site_fract_x
_atom_site_fract_y
_atom_site_fract_z
_atom_site_U_iso_or_equiv
_atom_site_adp_type
_atom_site_occupancy
        C1          C  0.4180230  0.4181584  0.5523974    0.00000       Uiso       1.00
        C2          C  0.4035657  0.4452074  0.5503343    0.00000       Uiso       1.00
        C3          C  0.4159051  0.4576010  0.5461665    0.00000       Uiso       1.00
        C4          C  0.4450477  0.4036966  0.5503206    0.00000       Uiso       1.00
        C5          C  0.4574217  0.4160555  0.5461528    0.00000       Uiso       1.00
        C6          C  0.4436246  0.4437997  0.5449986    0.00000       Uiso       1.00
        H1          H  0.4567515  0.6620305  0.5966959    0.00000       Uiso       1.00
        H2          H  0.6621740  0.4568305  0.5968116    0.00000       Uiso       1.00
        H3          H  0.4571688  0.3816461  0.5520268    0.00000       Uiso       1.00
        H4          H  0.3815351  0.4573325  0.5520518    0.00000       Uiso       1.00
        C7          C  0.4475517  0.7162677  0.5820146    0.00000       Uiso       1.00
        C8          C  0.4496245  0.7016031  0.5964622    0.00000       Uiso       1.00
        C9          C  0.4537978  0.6726969  0.5841174    0.00000       Uiso       1.00
       C10          C  0.4496245  0.7016318  0.5549939    0.00000       Uiso       1.00
       C11          C  0.4537978  0.6727257  0.5426145    0.00000       Uiso       1.00
       C12          C  0.4549615  0.6576149  0.5564021    0.00000       Uiso       1.00
        H5          H  0.4033190  0.4778997  0.5432204    0.00000       Uiso       1.00
        H6          H  0.4031357  0.4778602  0.3378654    0.00000       Uiso       1.00
        H7          H  0.4479105  0.7132753  0.5428807    0.00000       Uiso       1.00
        H8          H  0.4479104  0.7132229  0.6184896    0.00000       Uiso       1.00
       C13          C  0.7163486  0.4476493  0.5821094    0.00000       Uiso       1.00
       C14          C  0.7017083  0.4497382  0.5550942    0.00000       Uiso       1.00
       C15          C  0.6728218  0.4539148  0.5427257    0.00000       Uiso       1.00
       C16          C  0.7017083  0.4497094  0.5965626    0.00000       Uiso       1.00
       C17          C  0.6728217  0.4538860  0.5842286    0.00000       Uiso       1.00
       C18          C  0.6577356  0.4550652  0.5565187    0.00000       Uiso       1.00
        H9          H  0.4775184  0.4034258  0.3378408    0.00000       Uiso       1.00
       H10          H  0.4777018  0.4034652  0.5431958    0.00000       Uiso       1.00
       H11          H  0.7133321  0.4479820  0.6185855    0.00000       Uiso       1.00
       H12          H  0.7133321  0.4480345  0.5429766    0.00000       Uiso       1.00
       C19          C  0.4178398  0.4181628  0.2836890    0.00000       Uiso       1.00
       C20          C  0.4448645  0.4036895  0.2983197    0.00000       Uiso       1.00
       C21          C  0.4572384  0.4160255  0.3272008    0.00000       Uiso       1.00
       C22          C  0.4033825  0.4452003  0.2983334    0.00000       Uiso       1.00
       C23          C  0.4157218  0.4575709  0.3272145    0.00000       Uiso       1.00
       C24          C  0.4434413  0.4437583  0.3422911    0.00000       Uiso       1.00
       H13          H  0.6621741  0.4568821  0.5224533    0.00000       Uiso       1.00
       H14          H  0.4567516  0.6620821  0.5223376    0.00000       Uiso       1.00
       H15          H  0.3813518  0.4573346  0.2867174    0.00000       Uiso       1.00
       H16          H  0.4569855  0.3816483  0.2866924    0.00000       Uiso       1.00
       C25          C  0.4556096  0.4559084  0.5376527    0.00000       Uiso       1.00
       C26          C  0.4848324  0.4497752  0.5468234    0.00000       Uiso       1.00
       C27          C  0.4960175  0.4599386  0.5386332    0.00000       Uiso       1.00
       C28          C  0.4378846  0.4729421  0.5204436    0.00000       Uiso       1.00
       C29          C  0.4489502  0.4835562  0.5127435    0.00000       Uiso       1.00
       C30          C  0.4782756  0.4769671  0.5211747    0.00000       Uiso       1.00
       H17          H  0.4537939  0.5732160  0.5457078    0.00000       Uiso       1.00
       H18          H  0.5688437  0.5000767  0.5657482    0.00000       Uiso       1.00
       H19          H  0.4153247  0.4775496  0.5120965    0.00000       Uiso       1.00
       H20          H  0.4991357  0.4370523  0.5603951    0.00000       Uiso       1.00
       C31          C  0.4623432  0.6261635  0.5442554    0.00000       Uiso       1.00
       C32          C  0.4531622  0.6121505  0.5502753    0.00000       Uiso       1.00
       C33          C  0.4612989  0.5826037  0.5399634    0.00000       Uiso       1.00
       C34          C  0.4795304  0.6097311  0.5272067    0.00000       Uiso       1.00
       C35          C  0.4871645  0.5803518  0.5164369    0.00000       Uiso       1.00
       C36          C  0.4787226  0.5659475  0.5229053    0.00000       Uiso       1.00
       H21          H  0.5186515  0.4541145  0.5461297    0.00000       Uiso       1.00
       H22          H  0.4542199  0.5186949  0.4265944    0.00000       Uiso       1.00
       H23          H  0.4879103  0.6193970  0.5226951    0.00000       Uiso       1.00
       H24          H  0.4396185  0.6240733  0.5630133    0.00000       Uiso       1.00
       C37          C  0.6262984  0.4623203  0.5444897    0.00000       Uiso       1.00
       C38          C  0.6123999  0.4531429  0.5152618    0.00000       Uiso       1.00
       C39          C  0.5828699  0.4612280  0.5040495    0.00000       Uiso       1.00
       C40          C  0.6097541  0.4794139  0.5621816    0.00000       Uiso       1.00
       C41          C  0.5803896  0.4870073  0.5510879    0.00000       Uiso       1.00
       C42          C  0.5661051  0.4785928  0.5217615    0.00000       Uiso       1.00
       H25          H  0.4968352  0.4341702  0.4310131    0.00000       Uiso       1.00
       H26          H  0.4342722  0.4966303  0.4996043    0.00000       Uiso       1.00
       H27          H  0.6193199  0.4877643  0.5847425    0.00000       Uiso       1.00
       H28          H  0.6243993  0.4396458  0.5009726    0.00000       Uiso       1.00
       C43          C  0.4556472  0.4557106  0.3737276    0.00000       Uiso       1.00
       C44          C  0.4728276  0.4379161  0.3901875    0.00000       Uiso       1.00
       C45          C  0.4836742  0.4489059  0.4195388    0.00000       Uiso       1.00
       C46          C  0.4495994  0.4849396  0.3877060    0.00000       Uiso       1.00
       C47          C  0.4599936  0.4960512  0.4172310    0.00000       Uiso       1.00
       C48          C  0.4771585  0.4782312  0.4339078    0.00000       Uiso       1.00
       H29          H  0.5735700  0.4537411  0.4814175    0.00000       Uiso       1.00
       H30          H  0.5002808  0.5688899  0.5033561    0.00000       Uiso       1.00
       H31          H  0.4367750  0.4993029  0.3757741    0.00000       Uiso       1.00
       H32          H  0.4773842  0.4153491  0.3805714    0.00000       Uiso       1.00
       C49          C  0.5210702  0.4790143  0.4775180    0.00000       Uiso       1.00
       C50          C  0.4791471  0.5208312  0.5223320    0.00000       Uiso       1.00
       C51          C  0.4883151  0.4894837  0.4666308    0.00000       Uiso       1.00
       C52          C  0.4776534  0.5223810  0.4789967    0.00000       Uiso       1.00
       H33          H  0.4846661  0.5307790  0.4709809    0.00000       Uiso       1.00
       H34          H  0.4541883  0.5305954  0.4717503    0.00000       Uiso       1.00
       C53          C  0.5333782  0.4888770  0.5103992    0.00000       Uiso       1.00
       C54          C  0.5224851  0.4774181  0.5208036    0.00000       Uiso       1.00
       H35          H  0.5306984  0.4539378  0.5127805    0.00000       Uiso       1.00
       H36          H  0.5308200  0.4844106  0.5442123    0.00000       Uiso       1.00
       C55          C  0.4896092  0.4880801  0.5108947    0.00000       Uiso       1.00
       H37          H  0.4557314  0.5288814  0.5153072    0.00000       Uiso       1.00
       C56          C  0.4783604  0.4781577  0.4781366    0.00000       Uiso       1.00
       H38          H  0.4549524  0.4854187  0.4699094    0.00000       Uiso       1.00
       H39          H  0.4856412  0.4547324  0.4701957    0.00000       Uiso       1.00
       C57          C  0.5218151  0.5216671  0.5216926    0.00000       Uiso       1.00
       H40          H  0.4871406  0.5280513  0.5457917    0.00000       Uiso       1.00
       C58          C  0.4890465  0.5332107  0.5117323    0.00000       Uiso       1.00
       H41          H  0.5297253  0.5298679  0.5450968    0.00000       Uiso       1.00
       H42          H  0.5300340  0.5296286  0.5144541    0.00000       Uiso       1.00
       H43          H  0.5283287  0.4870602  0.4693467    0.00000       Uiso       1.00
       H44          H  0.5291271  0.4555851  0.4691377    0.00000       Uiso       1.00
       C59          C  0.3065315  0.4178894  0.1724172    0.00000       Uiso       1.00
       C60          C  0.2918876  0.4449270  0.1868750    0.00000       Uiso       1.00
       C61          C  0.2629999  0.4573187  0.1745426    0.00000       Uiso       1.00
       C62          C  0.2918936  0.4034373  0.1453990    0.00000       Uiso       1.00
       C63          C  0.2630059  0.4157945  0.1330320    0.00000       Uiso       1.00
       C64          C  0.2479159  0.4435280  0.1468298    0.00000       Uiso       1.00
       H45          H  0.0683531  0.6617687  0.1337400    0.00000       Uiso       1.00
       H46          H  0.0682021  0.4566744  0.9283476    0.00000       Uiso       1.00
       H47          H  0.3035204  0.3813964  0.1332776    0.00000       Uiso       1.00
       H48          H  0.3035093  0.4570440  0.2089004    0.00000       Uiso       1.00
       C65          C  0.0086686  0.7159802  0.1429489    0.00000       Uiso       1.00
       C66          C  0.0356934  0.7013316  0.1408720    0.00000       Uiso       1.00
       C67          C  0.0480733  0.6724212  0.1366966    0.00000       Uiso       1.00
       C68          C  0.9942172  0.7013240  0.1408780    0.00000       Uiso       1.00
       C69          C  0.0065628  0.6724136  0.1367027    0.00000       Uiso       1.00
       C70          C  0.0342825  0.6573181  0.1355345    0.00000       Uiso       1.00
       H49          H  0.2523496  0.4776070  0.1871287    0.00000       Uiso       1.00
       H50          H  0.0473224  0.4773875  0.1873422    0.00000       Uiso       1.00
       H51          H  0.9721864  0.7129542  0.1425955    0.00000       Uiso       1.00
       H52          H  0.0478095  0.7129679  0.1425844    0.00000       Uiso       1.00
       C71          C  0.0085268  0.4474998  0.8741913    0.00000       Uiso       1.00
       C72          C  0.9940729  0.4495598  0.8888312    0.00000       Uiso       1.00
       C73          C  0.0064137  0.4537153  0.9177108    0.00000       Uiso       1.00
       C74          C  0.0355492  0.4495673  0.8888251    0.00000       Uiso       1.00
       C75          C  0.0479243  0.4537228  0.9177046    0.00000       Uiso       1.00
       C76          C  0.0341310  0.4548725  0.9327900    0.00000       Uiso       1.00
       H53          H  0.0473333  0.4029911  0.1129702    0.00000       Uiso       1.00
       H54          H  0.2523605  0.4032106  0.1127567    0.00000       Uiso       1.00
       H55          H  0.0476672  0.4478634  0.8772016    0.00000       Uiso       1.00
       H56          H  0.9720442  0.4478497  0.8772126    0.00000       Uiso       1.00
       C77          C  0.0381392  0.4176584  0.1726400    0.00000       Uiso       1.00
       C78          C  0.0402120  0.4032094  0.1456193    0.00000       Uiso       1.00
       C79          C  0.0443792  0.4155726  0.1332475    0.00000       Uiso       1.00
       C80          C  0.0402059  0.4446990  0.1870953    0.00000       Uiso       1.00
       C81          C  0.0443732  0.4570968  0.1747580    0.00000       Uiso       1.00
       C82          C  0.0455367  0.4433090  0.1470429    0.00000       Uiso       1.00
       H57          H  0.9938298  0.4566608  0.9283584    0.00000       Uiso       1.00
       H58          H  0.9939808  0.6617552  0.1337509    0.00000       Uiso       1.00
       H59          H  0.0384917  0.4568137  0.2091227    0.00000       Uiso       1.00
       H60          H  0.0385028  0.3811660  0.1334999    0.00000       Uiso       1.00
       C83          C  0.2164906  0.4556321  0.1348521    0.00000       Uiso       1.00
       C84          C  0.2025734  0.4495176  0.1056365    0.00000       Uiso       1.00
       C85          C  0.1730481  0.4596757  0.0944581    0.00000       Uiso       1.00
       C86          C  0.1999852  0.4726416  0.1525769    0.00000       Uiso       1.00
       C87          C  0.1706188  0.4832508  0.1415181    0.00000       Uiso       1.00
       C88          C  0.1563155  0.4766800  0.1121999    0.00000       Uiso       1.00
       H61          H  0.1091134  0.5729248  0.1366877    0.00000       Uiso       1.00
       H62          H  0.0872310  0.4998543  0.0216594    0.00000       Uiso       1.00
       H63          H  0.2095898  0.4772336  0.1751315    0.00000       Uiso       1.00
       H64          H  0.2145556  0.4368136  0.0913335    0.00000       Uiso       1.00
       C89          C  0.0461969  0.6258641  0.1281511    0.00000       Uiso       1.00
       C90          C  0.0753970  0.6118560  0.1373257    0.00000       Uiso       1.00
       C91          C  0.0864870  0.5823082  0.1291877    0.00000       Uiso       1.00
       C92          C  0.0283988  0.6094255  0.1109691    0.00000       Uiso       1.00
       C93          C  0.0393661  0.5800446  0.1033337    0.00000       Uiso       1.00
       C94          C  0.0686667  0.5656458  0.1117692    0.00000       Uiso       1.00
       H65          H  0.1637352  0.4538667  0.0718294    0.00000       Uiso       1.00
       H66          H  0.0441263  0.5183094  0.1362693    0.00000       Uiso       1.00
       H67          H  0.0058517  0.6190884  0.1025944    0.00000       Uiso       1.00
       H68          H  0.0897515  0.6237833  0.1508653    0.00000       Uiso       1.00
       C95          C  0.0462840  0.4621055  0.9642202    0.00000       Uiso       1.00
       C96          C  0.0401372  0.4528995  0.9781166    0.00000       Uiso       1.00
       C97          C  0.0503696  0.4609632  0.0076396    0.00000       Uiso       1.00
       C98          C  0.0634214  0.4792060  0.9807595    0.00000       Uiso       1.00
       C99          C  0.0740984  0.4867781  0.0101170    0.00000       Uiso       1.00
      C100          C  0.0674765  0.4783348  0.0243995    0.00000       Uiso       1.00
       H69          H  0.0904199  0.4338180  0.0936518    0.00000       Uiso       1.00
       H70          H  0.1590925  0.4963062  0.1561956    0.00000       Uiso       1.00
       H71          H  0.0680623  0.4875778  0.9711950    0.00000       Uiso       1.00
       H72          H  0.0273497  0.4393963  0.9661208    0.00000       Uiso       1.00
      C101          C  0.0528095  0.4552908  0.1348386    0.00000       Uiso       1.00
      C102          C  0.0698710  0.4375196  0.1176582    0.00000       Uiso       1.00
      C103          C  0.0773806  0.4485367  0.1068129    0.00000       Uiso       1.00
      C104          C  0.0436137  0.4845246  0.1408878    0.00000       Uiso       1.00
      C105          C  0.0516273  0.4956635  0.1304947    0.00000       Uiso       1.00
      C106          C  0.0689466  0.4778670  0.1133297    0.00000       Uiso       1.00
       H73          H  0.0445289  0.4534548  0.0169385    0.00000       Uiso       1.00
       H74          H  0.0246357  0.5685776  0.0902215    0.00000       Uiso       1.00
       H75          H  0.0301527  0.4988706  0.1537123    0.00000       Uiso       1.00
       H76          H  0.0782594  0.4149497  0.1131003    0.00000       Uiso       1.00
      C107          C  0.0678544  0.4787027  0.0694261    0.00000       Uiso       1.00
      C108          C  0.1127609  0.5205374  0.1113366    0.00000       Uiso       1.00
      C109          C  0.0792535  0.4891498  0.1021740    0.00000       Uiso       1.00
      C110          C  0.0693919  0.5220485  0.1128364    0.00000       Uiso       1.00
       H77          H  0.0459765  0.5304402  0.1058288    0.00000       Uiso       1.00
       H78          H  0.0773968  0.5302473  0.1362964    0.00000       Uiso       1.00
      C111          C  0.0785576  0.4885964  0.0571191    0.00000       Uiso       1.00
      C112          C  0.1112989  0.4771451  0.0680051    0.00000       Uiso       1.00
       H79          H  0.1185368  0.4536647  0.0597914    0.00000       Uiso       1.00
       H80          H  0.1193748  0.4841596  0.0596708    0.00000       Uiso       1.00
      C113          C  0.1236039  0.4877856  0.1008736    0.00000       Uiso       1.00
       H81          H  0.1211019  0.5285723  0.1347472    0.00000       Uiso       1.00
      C114          C  0.1120247  0.4778327  0.1121217    0.00000       Uiso       1.00
       H82          H  0.1199450  0.4850774  0.1355245    0.00000       Uiso       1.00
       H83          H  0.1202220  0.4544071  0.1048402    0.00000       Uiso       1.00
      C115          C  0.0686325  0.5213866  0.0686829    0.00000       Uiso       1.00
       H84          H  0.1210016  0.5277793  0.1033437    0.00000       Uiso       1.00
      C116          C  0.0798978  0.5329086  0.1014444    0.00000       Uiso       1.00
       H85          H  0.0759207  0.5296091  0.0607734    0.00000       Uiso       1.00
       H86          H  0.0452243  0.5293431  0.0604693    0.00000       Uiso       1.00
       H87          H  0.0443897  0.4867423  0.0621728    0.00000       Uiso       1.00
       H88          H  0.0748406  0.4552730  0.0613688    0.00000       Uiso       1.00
      C117          C  0.0382872  0.4184574  0.2841098    0.00000       Uiso       1.00
      C118          C  0.0403540  0.4454979  0.2987518    0.00000       Uiso       1.00
      C119          C  0.0445212  0.4578670  0.3276341    0.00000       Uiso       1.00
      C120          C  0.0403600  0.4039795  0.2987442    0.00000       Uiso       1.00
      C121          C  0.0445272  0.4163140  0.3276265    0.00000       Uiso       1.00
      C122          C  0.0456847  0.4440496  0.3427146    0.00000       Uiso       1.00
       H89          H  0.9939839  0.6621799  0.5222606    0.00000       Uiso       1.00
       H90          H  0.9938301  0.4569425  0.5224047    0.00000       Uiso       1.00
       H91          H  0.0386508  0.3819357  0.2871190    0.00000       Uiso       1.00
       H92          H  0.0386398  0.4576359  0.2871329    0.00000       Uiso       1.00
      C123          C  0.0086716  0.7163699  0.5819341    0.00000       Uiso       1.00
      C124          C  0.9942201  0.7017310  0.5549158    0.00000       Uiso       1.00
      C125          C  0.0065658  0.6728263  0.5425352    0.00000       Uiso       1.00
      C126          C  0.0356963  0.7017097  0.5963781    0.00000       Uiso       1.00
      C127          C  0.0480763  0.6728051  0.5840321    0.00000       Uiso       1.00
      C128          C  0.0342855  0.6577204  0.5563189    0.00000       Uiso       1.00
       H93          H  0.0474704  0.4781591  0.3382827    0.00000       Uiso       1.00
       H94          H  0.2528628  0.4778723  0.5432424    0.00000       Uiso       1.00
       H95          H  0.0478125  0.7133321  0.6184034    0.00000       Uiso       1.00
       H96          H  0.9721895  0.7133708  0.5428056    0.00000       Uiso       1.00
      C129          C  0.0085271  0.4477025  0.5820665    0.00000       Uiso       1.00
      C130          C  0.0355494  0.4497702  0.5965136    0.00000       Uiso       1.00
      C131          C  0.0479246  0.4539543  0.5841737    0.00000       Uiso       1.00
      C132          C  0.9940732  0.4497914  0.5550513    0.00000       Uiso       1.00
      C133          C  0.0064141  0.4539755  0.5426768    0.00000       Uiso       1.00
      C134          C  0.0341314  0.4551337  0.5564635    0.00000       Uiso       1.00
       H97          H  0.2528736  0.4034243  0.5432287    0.00000       Uiso       1.00
       H98          H  0.0474813  0.4037111  0.3382691    0.00000       Uiso       1.00
       H99          H  0.9720445  0.4480816  0.5429386    0.00000       Uiso       1.00
      H100          H  0.0476675  0.4480429  0.6185365    0.00000       Uiso       1.00
      C135          C  0.3070447  0.4181381  0.5524138    0.00000       Uiso       1.00
      C136          C  0.2924068  0.4036688  0.5503429    0.00000       Uiso       1.00
      C137          C  0.2635191  0.4160202  0.5461812    0.00000       Uiso       1.00
      C138          C  0.2924007  0.4451872  0.5503505    0.00000       Uiso       1.00
      C139          C  0.2635130  0.4575732  0.5461888    0.00000       Uiso       1.00
      C140          C  0.2484291  0.4437641  0.5450271    0.00000       Uiso       1.00
      H101          H  0.0682023  0.4569045  0.5967521    0.00000       Uiso       1.00
      H102          H  0.0683560  0.6621419  0.5966080    0.00000       Uiso       1.00
      H103          H  0.3040225  0.4573184  0.5520632    0.00000       Uiso       1.00
      H104          H  0.3040335  0.3816183  0.5520493    0.00000       Uiso       1.00
      C141          C  0.0530306  0.4561306  0.3741336    0.00000       Uiso       1.00
      C142          C  0.0438537  0.4499871  0.3880494    0.00000       Uiso       1.00
      C143          C  0.0520440  0.4601238  0.4175685    0.00000       Uiso       1.00
      C144          C  0.0702461  0.4731472  0.3906341    0.00000       Uiso       1.00
      C145          C  0.0779464  0.4837351  0.4199945    0.00000       Uiso       1.00
      C146          C  0.0695090  0.4771349  0.4342962    0.00000       Uiso       1.00
      H105          H  0.0449787  0.5733682  0.4814968    0.00000       Uiso       1.00
      H106          H  0.0249150  0.5002030  0.5033755    0.00000       Uiso       1.00
      H107          H  0.0785982  0.4777613  0.3810302    0.00000       Uiso       1.00
      H108          H  0.0302769  0.4372768  0.3760709    0.00000       Uiso       1.00
      C147          C  0.0464320  0.6262696  0.5444037    0.00000       Uiso       1.00
      C148          C  0.0404119  0.6122817  0.5152093    0.00000       Uiso       1.00
      C149          C  0.0507233  0.5827358  0.5041186    0.00000       Uiso       1.00
      C150          C  0.0634807  0.6098132  0.5621955    0.00000       Uiso       1.00
      C151          C  0.0742503  0.5804345  0.5512275    0.00000       Uiso       1.00
      C152          C  0.0677814  0.5660553  0.5219326    0.00000       Uiso       1.00
      H109          H  0.0445427  0.4542930  0.4268806    0.00000       Uiso       1.00
      H110          H  0.1641117  0.5187409  0.5464525    0.00000       Uiso       1.00
      H111          H  0.0679923  0.6194595  0.5847381    0.00000       Uiso       1.00
      H112          H  0.0276740  0.6242235  0.5008597    0.00000       Uiso       1.00
      C153          C  0.0461674  0.4623968  0.5443112    0.00000       Uiso       1.00
      C154          C  0.0754023  0.4532027  0.5504522    0.00000       Uiso       1.00
      C155          C  0.0866213  0.4612945  0.5402196    0.00000       Uiso       1.00
      C156          C  0.0284754  0.4795144  0.5271802    0.00000       Uiso       1.00
      C157          C  0.0395757  0.4871148  0.5165031    0.00000       Uiso       1.00
      C158          C  0.0689092  0.4786834  0.5231192    0.00000       Uiso       1.00
      H113          H  0.1596827  0.4342429  0.5001649    0.00000       Uiso       1.00
      H114          H  0.0910906  0.4967971  0.4315172    0.00000       Uiso       1.00
      H115          H  0.0059093  0.4878778  0.5225438    0.00000       Uiso       1.00
      H116          H  0.0896919  0.4396872  0.5632349    0.00000       Uiso       1.00
      C159          C  0.2169855  0.4557354  0.5377607    0.00000       Uiso       1.00
      C160          C  0.2005194  0.4379580  0.5207041    0.00000       Uiso       1.00
      C161          C  0.1711615  0.4489661  0.5132006    0.00000       Uiso       1.00
      C162          C  0.2030066  0.4849662  0.5469581    0.00000       Uiso       1.00
      C163          C  0.1734751  0.4960965  0.5389507    0.00000       Uiso       1.00
      C164          C  0.1567920  0.4782940  0.5216363    0.00000       Uiso       1.00
      H117          H  0.1092585  0.4537937  0.5460557    0.00000       Uiso       1.00
      H118          H  0.0873310  0.5689532  0.5659528    0.00000       Uiso       1.00
      H119          H  0.2149430  0.4993163  0.5604154    0.00000       Uiso       1.00
      H120          H  0.2101357  0.4153910  0.5123150    0.00000       Uiso       1.00
      C165          C  0.1131675  0.4790907  0.5227348    0.00000       Uiso       1.00
      C166          C  0.0683531  0.5209693  0.4778447    0.00000       Uiso       1.00
      C167          C  0.1240619  0.4895684  0.5113366    0.00000       Uiso       1.00
      C168          C  0.1116966  0.5224671  0.5211994    0.00000       Uiso       1.00
      H121          H  0.1197130  0.5308434  0.5446096    0.00000       Uiso       1.00
      H122          H  0.1189479  0.5306876  0.5131952    0.00000       Uiso       1.00
      C169          C  0.0802788  0.4889753  0.5120388    0.00000       Uiso       1.00
      C170          C  0.0698737  0.4775465  0.4793046    0.00000       Uiso       1.00
      H123          H  0.0778962  0.4540656  0.4720659    0.00000       Uiso       1.00
      H124          H  0.0464598  0.4845550  0.4712338    0.00000       Uiso       1.00
      C171          C  0.0797897  0.4882179  0.4670007    0.00000       Uiso       1.00
      H125          H  0.0753829  0.5290260  0.4695044    0.00000       Uiso       1.00
      C172          C  0.1125550  0.4782728  0.4785725    0.00000       Uiso       1.00
      H126          H  0.1207874  0.4855393  0.4706528    0.00000       Uiso       1.00
      H127          H  0.1204954  0.4548478  0.4703747    0.00000       Uiso       1.00
      C173          C  0.0689863  0.5217665  0.5219650    0.00000       Uiso       1.00
      H128          H  0.0448882  0.5282056  0.4696091    0.00000       Uiso       1.00
      C174          C  0.0789537  0.5333188  0.5107006    0.00000       Uiso       1.00
      H129          H  0.0455770  0.5299829  0.5146818    0.00000       Uiso       1.00
      H130          H  0.0762251  0.5297066  0.5453681    0.00000       Uiso       1.00
      H131          H  0.1213395  0.4871148  0.5461943    0.00000       Uiso       1.00
      H132          H  0.1215472  0.4556606  0.5157477    0.00000       Uiso       1.00
      C175          C  0.4180391  0.3070665  0.5523771    0.00000       Uiso       1.00
      C176          C  0.4450639  0.2924179  0.5503001    0.00000       Uiso       1.00
      C177          C  0.4574438  0.2635075  0.5461248    0.00000       Uiso       1.00
      C178          C  0.4035879  0.2924103  0.5503062    0.00000       Uiso       1.00
      C179          C  0.4159333  0.2635000  0.5461308    0.00000       Uiso       1.00
      C180          C  0.4436530  0.2484045  0.5449627    0.00000       Uiso       1.00
      H133          H  0.6617203  0.0686935  0.5965570    0.00000       Uiso       1.00
      H134          H  0.4566928  0.0684740  0.5967705    0.00000       Uiso       1.00
      H135          H  0.3815573  0.3040406  0.5520237    0.00000       Uiso       1.00
      H136          H  0.4571800  0.3040543  0.5520126    0.00000       Uiso       1.00
      C181          C  0.7159021  0.0089759  0.5818455    0.00000       Uiso       1.00
      C182          C  0.7012582  0.0360135  0.5963033    0.00000       Uiso       1.00
      C183          C  0.6723705  0.0484052  0.5839708    0.00000       Uiso       1.00
      C184          C  0.7012640  0.9945237  0.5548273    0.00000       Uiso       1.00
      C185          C  0.6723765  0.0068810  0.5424603    0.00000       Uiso       1.00
      C186          C  0.6572866  0.0346145  0.5562581    0.00000       Uiso       1.00
      H137          H  0.4777236  0.2528551  0.5431681    0.00000       Uiso       1.00
      H138          H  0.4775718  0.0477606  0.3377756    0.00000       Uiso       1.00
      H139          H  0.7128907  0.9724827  0.5427059    0.00000       Uiso       1.00
      H140          H  0.7128800  0.0481305  0.6183288    0.00000       Uiso       1.00
      C187          C  0.4475096  0.0087449  0.5820683    0.00000       Uiso       1.00
      C188          C  0.4495821  0.9942958  0.5550476    0.00000       Uiso       1.00
      C189          C  0.4537496  0.0066591  0.5426758    0.00000       Uiso       1.00
      C190          C  0.4495763  0.0357855  0.5965236    0.00000       Uiso       1.00
      C191          C  0.4537435  0.0481833  0.5841863    0.00000       Uiso       1.00
      C192          C  0.4549071  0.0343955  0.5564712    0.00000       Uiso       1.00
      H141          H  0.4031999  0.0477470  0.3377865    0.00000       Uiso       1.00
      H142          H  0.4033517  0.2528416  0.5431790    0.00000       Uiso       1.00
      H143          H  0.4478621  0.0479002  0.6185510    0.00000       Uiso       1.00
      H144          H  0.4478729  0.9722524  0.5429282    0.00000       Uiso       1.00
      C193          C  0.4178966  0.0385860  0.2836193    0.00000       Uiso       1.00
      C194          C  0.4034429  0.0406460  0.2982591    0.00000       Uiso       1.00
      C195          C  0.4157835  0.0448015  0.3271388    0.00000       Uiso       1.00
      C196          C  0.4449189  0.0406535  0.2982531    0.00000       Uiso       1.00
      C197          C  0.4572940  0.0448090  0.3271327    0.00000       Uiso       1.00
      C198          C  0.4435008  0.0459588  0.3422181    0.00000       Uiso       1.00
      H145          H  0.4567034  0.9940775  0.5223985    0.00000       Uiso       1.00
      H146          H  0.6617308  0.9942970  0.5221850    0.00000       Uiso       1.00
      H147          H  0.4570370  0.0389496  0.2866296    0.00000       Uiso       1.00
      H148          H  0.3814143  0.0389359  0.2866406    0.00000       Uiso       1.00
      C199          C  0.4557467  0.2169560  0.5376089    0.00000       Uiso       1.00
      C200          C  0.4496227  0.2030162  0.5467833    0.00000       Uiso       1.00
      C201          C  0.4597724  0.1734697  0.5385860    0.00000       Uiso       1.00
      C202          C  0.4727566  0.2004513  0.5203885    0.00000       Uiso       1.00
      C203          C  0.4833568  0.1710636  0.5126811    0.00000       Uiso       1.00
      C204          C  0.4767770  0.1567376  0.5211162    0.00000       Uiso       1.00
      H149          H  0.5729558  0.1095018  0.5456052    0.00000       Uiso       1.00
      H150          H  0.4998874  0.0875590  0.5656826    0.00000       Uiso       1.00
      H151          H  0.4773563  0.2100730  0.5120384    0.00000       Uiso       1.00
      H152          H  0.4369178  0.2149970  0.5603635    0.00000       Uiso       1.00
      C205          C  0.6258557  0.0465392  0.5441251    0.00000       Uiso       1.00
      C206          C  0.6118587  0.0757605  0.5501536    0.00000       Uiso       1.00
      C207          C  0.5823318  0.0868593  0.5398548    0.00000       Uiso       1.00
      C208          C  0.6094279  0.0287293  0.5270811    0.00000       Uiso       1.00
      C209          C  0.5800681  0.0397057  0.5163241    0.00000       Uiso       1.00
      C210          C  0.5656803  0.0690271  0.5228013    0.00000       Uiso       1.00
      H153          H  0.4539566  0.1641401  0.5460860    0.00000       Uiso       1.00
      H154          H  0.5184173  0.0445130  0.4264980    0.00000       Uiso       1.00
      H155          H  0.6190825  0.0061654  0.5225633    0.00000       Uiso       1.00
      H156          H  0.6237785  0.0901247  0.5628884    0.00000       Uiso       1.00
      C211          C  0.4621504  0.0465717  0.5444375    0.00000       Uiso       1.00
      C212          C  0.4529656  0.0404359  0.5152094    0.00000       Uiso       1.00
      C213          C  0.4610385  0.0506900  0.5039920    0.00000       Uiso       1.00
      C214          C  0.4792393  0.0637200  0.5621244    0.00000       Uiso       1.00
      C215          C  0.4868210  0.0744188  0.5510259    0.00000       Uiso       1.00
      C216          C  0.4783984  0.0678078  0.5216990    0.00000       Uiso       1.00
      H157          H  0.4339677  0.0908231  0.4309593    0.00000       Uiso       1.00
      H158          H  0.4964128  0.1595389  0.4995333    0.00000       Uiso       1.00
      H159          H  0.4875944  0.0683527  0.5846849    0.00000       Uiso       1.00
      H160          H  0.4394720  0.0276408  0.5009241    0.00000       Uiso       1.00
      C217          C  0.4554594  0.0532211  0.3736538    0.00000       Uiso       1.00
      C218          C  0.4376888  0.0702828  0.3901252    0.00000       Uiso       1.00
      C219          C  0.4486847  0.0777832  0.4194759    0.00000       Uiso       1.00
      C220          C  0.4846705  0.0440157  0.3876199    0.00000       Uiso       1.00
      C221          C  0.4957881  0.0520206  0.4171443    0.00000       Uiso       1.00
      C222          C  0.4779923  0.0693403  0.4338327    0.00000       Uiso       1.00
      H161          H  0.4535461  0.0448565  0.4813601    0.00000       Uiso       1.00
      H162          H  0.5686086  0.0249656  0.5032463    0.00000       Uiso       1.00
      H163          H  0.4990152  0.0305540  0.3756790    0.00000       Uiso       1.00
      H164          H  0.4151362  0.0786790  0.3805187    0.00000       Uiso       1.00
      C223          C  0.4787970  0.0682169  0.4774488    0.00000       Uiso       1.00
      C224          C  0.5206033  0.1131520  0.5222511    0.00000       Uiso       1.00
      C225          C  0.4892524  0.0796387  0.4665554    0.00000       Uiso       1.00
      C226          C  0.5221280  0.0697692  0.4789071    0.00000       Uiso       1.00
      H165          H  0.5305140  0.0463382  0.4708853    0.00000       Uiso       1.00
      H166          H  0.5303321  0.0777901  0.4716561    0.00000       Uiso       1.00
      C227          C  0.4886686  0.0789115  0.5103306    0.00000       Uiso       1.00
      C228          C  0.4772258  0.1116753  0.5207431    0.00000       Uiso       1.00
      H167          H  0.4537614  0.1189185  0.5127303    0.00000       Uiso       1.00
      H168          H  0.4842246  0.1197456  0.5441523    0.00000       Uiso       1.00
      C229          C  0.4878742  0.1240033  0.5108281    0.00000       Uiso       1.00
      H169          H  0.5286434  0.1215091  0.5152218    0.00000       Uiso       1.00
      C230          C  0.4779430  0.1124318  0.4780696    0.00000       Uiso       1.00
      H170          H  0.4851940  0.1203682  0.4698380    0.00000       Uiso       1.00
      H171          H  0.4545336  0.1206353  0.4701390    0.00000       Uiso       1.00
      C231          C  0.5214365  0.0689791  0.5216096    0.00000       Uiso       1.00
      H172          H  0.5278295  0.1213873  0.5457111    0.00000       Uiso       1.00
      C232          C  0.5329657  0.0802667  0.5116428    0.00000       Uiso       1.00
      H173          H  0.5296427  0.0762612  0.5450135    0.00000       Uiso       1.00
      H174          H  0.5293868  0.0455546  0.5143654    0.00000       Uiso       1.00
      H175          H  0.4868311  0.0447366  0.4692716    0.00000       Uiso       1.00
      H176          H  0.4553834  0.0752085  0.4690787    0.00000       Uiso       1.00
      C233          C  0.4180768  0.0381155  0.1724777    0.00000       Uiso       1.00
      C234          C  0.4450991  0.0401832  0.1869248    0.00000       Uiso       1.00
      C235          C  0.4574743  0.0443673  0.1745849    0.00000       Uiso       1.00
      C236          C  0.4036232  0.0402045  0.1454625    0.00000       Uiso       1.00
      C237          C  0.4159638  0.0443886  0.1330880    0.00000       Uiso       1.00
      C238          C  0.4436811  0.0455468  0.1468747    0.00000       Uiso       1.00
      H177          H  0.6617295  0.9938740  0.1336771    0.00000       Uiso       1.00
      H178          H  0.4567030  0.9937958  0.9283522    0.00000       Uiso       1.00
      H179          H  0.3815945  0.0384947  0.1333498    0.00000       Uiso       1.00
      H180          H  0.4572172  0.0384560  0.2089476    0.00000       Uiso       1.00
      C239          C  0.7159009  0.0085879  0.1428620    0.00000       Uiso       1.00
      C240          C  0.7012627  0.9941185  0.1407912    0.00000       Uiso       1.00
      C241          C  0.6723753  0.0064700  0.1366295    0.00000       Uiso       1.00
      C242          C  0.7012570  0.0356369  0.1407988    0.00000       Uiso       1.00
      C243          C  0.6723692  0.0480230  0.1366371    0.00000       Uiso       1.00
      C244          C  0.6572853  0.0342139  0.1354755    0.00000       Uiso       1.00
      H181          H  0.4777521  0.0473175  0.1871633    0.00000       Uiso       1.00
      H182          H  0.4775405  0.2529200  0.1873845    0.00000       Uiso       1.00
      H183          H  0.7128787  0.0477681  0.1425115    0.00000       Uiso       1.00
      H184          H  0.7128894  0.9720679  0.1424976    0.00000       Uiso       1.00
      C245          C  0.4475093  0.0085422  0.8741930    0.00000       Uiso       1.00
      C246          C  0.4495761  0.0355827  0.8888350    0.00000       Uiso       1.00
      C247          C  0.4537432  0.0479518  0.9177173    0.00000       Uiso       1.00
      C248          C  0.4495818  0.9940642  0.8888274    0.00000       Uiso       1.00
      C249          C  0.4537492  0.0063988  0.9177096    0.00000       Uiso       1.00
      C250          C  0.4549067  0.0341344  0.9327978    0.00000       Uiso       1.00
      H185          H  0.4031686  0.2529581  0.1130371    0.00000       Uiso       1.00
      H186          H  0.4033802  0.0473556  0.1128159    0.00000       Uiso       1.00
      H187          H  0.4478726  0.9720205  0.8772022    0.00000       Uiso       1.00
      H188          H  0.4478619  0.0477207  0.8772161    0.00000       Uiso       1.00
      C251          C  0.4178559  0.3071480  0.1727106    0.00000       Uiso       1.00
      C252          C  0.4034048  0.2925091  0.1456923    0.00000       Uiso       1.00
      C253          C  0.4157502  0.2636045  0.1333117    0.00000       Uiso       1.00
      C254          C  0.4448807  0.2924879  0.1871546    0.00000       Uiso       1.00
      C255          C  0.4572607  0.2635832  0.1748086    0.00000       Uiso       1.00
      C256          C  0.4434699  0.2484986  0.1470954    0.00000       Uiso       1.00
      H189          H  0.4566925  0.0682440  0.9283659    0.00000       Uiso       1.00
      H190          H  0.6617190  0.0683221  0.1336907    0.00000       Uiso       1.00
      H191          H  0.4569969  0.3041102  0.2091799    0.00000       Uiso       1.00
      H192          H  0.3813742  0.3041489  0.1335820    0.00000       Uiso       1.00
      C257          C  0.4557692  0.0529124  0.1348897    0.00000       Uiso       1.00
      C258          C  0.4496445  0.0437444  0.1056724    0.00000       Uiso       1.00
      C259          C  0.4597887  0.0519543  0.0944878    0.00000       Uiso       1.00
      C260          C  0.4727741  0.0701389  0.1526097    0.00000       Uiso       1.00
      C261          C  0.4833690  0.0778582  0.1415444    0.00000       Uiso       1.00
      C262          C  0.4767884  0.0694304  0.1122247    0.00000       Uiso       1.00
      H193          H  0.5729639  0.0448896  0.1366694    0.00000       Uiso       1.00
      H194          H  0.4998954  0.0248612  0.0216583    0.00000       Uiso       1.00
      H195          H  0.4773740  0.0784854  0.1751656    0.00000       Uiso       1.00
      H196          H  0.4369434  0.0301595  0.0913729    0.00000       Uiso       1.00
      C263          C  0.6258544  0.0463677  0.1281064    0.00000       Uiso       1.00
      C264          C  0.6118625  0.0403304  0.1372888    0.00000       Uiso       1.00
      C265          C  0.5823358  0.0506484  0.1291641    0.00000       Uiso       1.00
      C266          C  0.6094216  0.0634403  0.1109304    0.00000       Uiso       1.00
      C267          C  0.5800618  0.0742166  0.1033082    0.00000       Uiso       1.00
      C268          C  0.5656791  0.0677306  0.1117516    0.00000       Uiso       1.00
      H197          H  0.4539727  0.0444590  0.0718583    0.00000       Uiso       1.00
      H198          H  0.5183985  0.1641269  0.1362813    0.00000       Uiso       1.00
      H199          H  0.6190722  0.0679655  0.1025500    0.00000       Uiso       1.00
      H200          H  0.6237863  0.0275740  0.1508242    0.00000       Uiso       1.00
      C269          C  0.4621501  0.0461633  0.9642295    0.00000       Uiso       1.00
      C270          C  0.4529600  0.0754155  0.9781334    0.00000       Uiso       1.00
      C271          C  0.4610320  0.0866277  0.0076573    0.00000       Uiso       1.00
      C272          C  0.4792441  0.0284473  0.9807625    0.00000       Uiso       1.00
      C273          C  0.4868249  0.0395406  0.0101210    0.00000       Uiso       1.00
      C274          C  0.4783970  0.0688915  0.0244107    0.00000       Uiso       1.00
      H201          H  0.4339563  0.1596953  0.0936977    0.00000       Uiso       1.00
      H202          H  0.4964213  0.0910100  0.1562183    0.00000       Uiso       1.00
      H203          H  0.4876030  0.0058675  0.9711917    0.00000       Uiso       1.00
      H204          H  0.4394625  0.0897236  0.9661428    0.00000       Uiso       1.00
      C275          C  0.4554341  0.2170352  0.1348825    0.00000       Uiso       1.00
      C276          C  0.4376685  0.2005583  0.1177073    0.00000       Uiso       1.00
      C277          C  0.4486697  0.1711815  0.1068541    0.00000       Uiso       1.00
      C278          C  0.4846459  0.2030473  0.1409181    0.00000       Uiso       1.00
      C279          C  0.4957691  0.1734965  0.1305170    0.00000       Uiso       1.00
      C280          C  0.4779781  0.1568024  0.1133574    0.00000       Uiso       1.00
      H205          H  0.4535355  0.1092792  0.0169619    0.00000       Uiso       1.00
      H206          H  0.5685982  0.0873161  0.0902001    0.00000       Uiso       1.00
      H207          H  0.4989868  0.2149917  0.1537381    0.00000       Uiso       1.00
      H208          H  0.4151157  0.2101803  0.1131600    0.00000       Uiso       1.00
      C281          C  0.4787892  0.1131640  0.0694454    0.00000       Uiso       1.00
      C282          C  0.5206085  0.0682883  0.1113404    0.00000       Uiso       1.00
      C283          C  0.4892446  0.1240502  0.1021935    0.00000       Uiso       1.00
      C284          C  0.5221206  0.1116756  0.1128413    0.00000       Uiso       1.00
      H209          H  0.5305020  0.1197079  0.1058290    0.00000       Uiso       1.00
      H210          H  0.5303248  0.1189208  0.1363011    0.00000       Uiso       1.00
      C285          C  0.4886671  0.0802534  0.0571307    0.00000       Uiso       1.00
      C286          C  0.4772306  0.0698263  0.0680233    0.00000       Uiso       1.00
      H211          H  0.4537660  0.0778550  0.0598199    0.00000       Uiso       1.00
      H212          H  0.4842340  0.0463965  0.0596836    0.00000       Uiso       1.00
      C287          C  0.4878793  0.0797331  0.1008919    0.00000       Uiso       1.00
      H213          H  0.5286488  0.0753117  0.1347508    0.00000       Uiso       1.00
      C288          C  0.4779416  0.1125209  0.1121476    0.00000       Uiso       1.00
      H214          H  0.4851925  0.1207478  0.1355507    0.00000       Uiso       1.00
      H215          H  0.4545323  0.1204668  0.1048765    0.00000       Uiso       1.00
      C289          C  0.5214352  0.0689521  0.0686801    0.00000       Uiso       1.00
      H216          H  0.5278394  0.0448073  0.1033420    0.00000       Uiso       1.00
      C290          C  0.5329646  0.0789107  0.1014412    0.00000       Uiso       1.00
      H217          H  0.5296459  0.0455270  0.0607647    0.00000       Uiso       1.00
      H218          H  0.5293811  0.0762066  0.0604617    0.00000       Uiso       1.00
      H219          H  0.4868186  0.1213520  0.0621874    0.00000       Uiso       1.00
      H220          H  0.4553754  0.1215501  0.0613984    0.00000       Uiso       1.00
      C291          C  0.3066235  0.0382773  0.1723862    0.00000       Uiso       1.00
      C292          C  0.2919832  0.0403662  0.1453710    0.00000       Uiso       1.00
      C293          C  0.2630967  0.0445428  0.1330025    0.00000       Uiso       1.00
      C294          C  0.2919832  0.0403374  0.1868394    0.00000       Uiso       1.00
      C295          C  0.2630967  0.0445140  0.1745054    0.00000       Uiso       1.00
      C296          C  0.2480106  0.0456932  0.1467955    0.00000       Uiso       1.00
      H221          H  0.0684876  0.9940905  0.9288113    0.00000       Uiso       1.00
      H222          H  0.0683049  0.9937642  0.1338009    0.00000       Uiso       1.00
      H223          H  0.3036070  0.0386100  0.2088623    0.00000       Uiso       1.00
      H224          H  0.3036070  0.0386625  0.1332534    0.00000       Uiso       1.00
      C297          C  0.0088092  0.0088277  0.8746595    0.00000       Uiso       1.00
      C298          C  0.0358336  0.9943542  0.8892902    0.00000       Uiso       1.00
      C299          C  0.0482079  0.0066904  0.9181713    0.00000       Uiso       1.00
      C300          C  0.9943516  0.0358652  0.8893039    0.00000       Uiso       1.00
      C301          C  0.0066913  0.0482358  0.9181851    0.00000       Uiso       1.00
      C302          C  0.0344107  0.0344232  0.9332616    0.00000       Uiso       1.00
      H225          H  0.2524491  0.0475101  0.1127301    0.00000       Uiso       1.00
      H226          H  0.0473919  0.2530754  0.1129796    0.00000       Uiso       1.00
      H227          H  0.9723210  0.0479995  0.8776879    0.00000       Uiso       1.00
      H228          H  0.0479547  0.9723130  0.8776630    0.00000       Uiso       1.00
      C303          C  0.0086265  0.0084574  0.1430026    0.00000       Uiso       1.00
      C304          C  0.9941689  0.0355065  0.1409394    0.00000       Uiso       1.00
      C305          C  0.0065086  0.0479000  0.1367716    0.00000       Uiso       1.00
      C306          C  0.0356509  0.9939955  0.1409257    0.00000       Uiso       1.00
      C307          C  0.0480252  0.0063546  0.1367579    0.00000       Uiso       1.00
      C308          C  0.0342281  0.0340987  0.1356037    0.00000       Uiso       1.00
      H229          H  0.0473919  0.2530237  0.1873379    0.00000       Uiso       1.00
      H230          H  0.2524490  0.0474585  0.1870884    0.00000       Uiso       1.00
      H231          H  0.0477720  0.9719450  0.1426319    0.00000       Uiso       1.00
      H232          H  0.9721382  0.0476315  0.1426569    0.00000       Uiso       1.00
      C309          C  0.0381921  0.3072609  0.1726566    0.00000       Uiso       1.00
      C310          C  0.0402649  0.2925963  0.1871043    0.00000       Uiso       1.00
      C311          C  0.0444381  0.2636901  0.1747594    0.00000       Uiso       1.00
      C312          C  0.0402650  0.2926250  0.1456359    0.00000       Uiso       1.00
      C313          C  0.0444382  0.2637189  0.1332565    0.00000       Uiso       1.00
      C314          C  0.0456019  0.2486082  0.1470441    0.00000       Uiso       1.00
      H233          H  0.9939222  0.0681987  0.1338255    0.00000       Uiso       1.00
      H234          H  0.9941049  0.0685251  0.9288359    0.00000       Uiso       1.00
      H235          H  0.0385509  0.3042685  0.1335227    0.00000       Uiso       1.00
      H236          H  0.0385508  0.3042161  0.2091316    0.00000       Uiso       1.00
      C315          C  0.2165860  0.0530510  0.1347145    0.00000       Uiso       1.00
      C316          C  0.2026692  0.0438571  0.1408397    0.00000       Uiso       1.00
      C317          C  0.1731442  0.0520590  0.1307020    0.00000       Uiso       1.00
      C318          C  0.2000806  0.0702954  0.1177157    0.00000       Uiso       1.00
      C319          C  0.1707146  0.0780071  0.1071274    0.00000       Uiso       1.00
      C320          C  0.1564115  0.0695530  0.1137086    0.00000       Uiso       1.00
      H237          H  0.1092271  0.0450698  0.0175566    0.00000       Uiso       1.00
      H238          H  0.0873367  0.0249202  0.0906143    0.00000       Uiso       1.00
      H239          H  0.2096847  0.0786617  0.1131155    0.00000       Uiso       1.00
      H240          H  0.2146515  0.0302579  0.1535362    0.00000       Uiso       1.00
      C321          C  0.0463188  0.0465580  0.9646854    0.00000       Uiso       1.00
      C322          C  0.0755178  0.0405253  0.9786702    0.00000       Uiso       1.00
      C323          C  0.0866012  0.0508241  0.0081900    0.00000       Uiso       1.00
      C324          C  0.0285158  0.0636071  0.9811186    0.00000       Uiso       1.00
      C325          C  0.0394765  0.0743646  0.0104714    0.00000       Uiso       1.00
      C326          C  0.0687759  0.0678824  0.0248469    0.00000       Uiso       1.00
      H241          H  0.1638315  0.0445433  0.1365180    0.00000       Uiso       1.00
      H242          H  0.0442147  0.1642671  0.0721261    0.00000       Uiso       1.00
      H243          H  0.0059695  0.0681273  0.9714732    0.00000       Uiso       1.00
      H244          H  0.0898758  0.0277870  0.9667461    0.00000       Uiso       1.00
      C327          C  0.0463804  0.0461553  0.1283603    0.00000       Uiso       1.00
      C328          C  0.0402281  0.0754113  0.1375507    0.00000       Uiso       1.00
      C329          C  0.0504608  0.0866505  0.1294783    0.00000       Uiso       1.00
      C330          C  0.0635229  0.0284627  0.1112663    0.00000       Uiso       1.00
      C331          C  0.0742001  0.0395826  0.1036849    0.00000       Uiso       1.00
      C332          C  0.0675727  0.0689379  0.1121133    0.00000       Uiso       1.00
      H245          H  0.0904965  0.1597711  0.1565460    0.00000       Uiso       1.00
      H246          H  0.1591883  0.0911737  0.0940796    0.00000       Uiso       1.00
      H247          H  0.0681683  0.0058813  0.1029073    0.00000       Uiso       1.00
      H248          H  0.0274364  0.0897019  0.1510481    0.00000       Uiso       1.00
      C333          C  0.0528810  0.2171437  0.1350798    0.00000       Uiso       1.00
      C334          C  0.0699423  0.2006489  0.1528390    0.00000       Uiso       1.00
      C335          C  0.0774577  0.1712717  0.1418376    0.00000       Uiso       1.00
      C336          C  0.0436915  0.2031734  0.1058741    0.00000       Uiso       1.00
      C337          C  0.0517109  0.1736224  0.0947507    0.00000       Uiso       1.00
      C338          C  0.0690301  0.1569105  0.1125352    0.00000       Uiso       1.00
      H249          H  0.0446156  0.1093035  0.1369752    0.00000       Uiso       1.00
      H250          H  0.0247425  0.0874465  0.0219355    0.00000       Uiso       1.00
      H251          H  0.0302308  0.2151316  0.0915382    0.00000       Uiso       1.00
      H252          H  0.0783259  0.2102578  0.1753869    0.00000       Uiso       1.00
      C339          C  0.0679443  0.1132418  0.1117228    0.00000       Uiso       1.00
      C340          C  0.1128634  0.0684248  0.0699028    0.00000       Uiso       1.00
      C341          C  0.0793433  0.1241582  0.1012680    0.00000       Uiso       1.00
      C342          C  0.0694884  0.1118060  0.0683990    0.00000       Uiso       1.00
      H253          H  0.0460731  0.1198335  0.0600229    0.00000       Uiso       1.00
      H254          H  0.0774935  0.1190732  0.0601954    0.00000       Uiso       1.00
      C343          C  0.0786537  0.0803297  0.1018439    0.00000       Uiso       1.00
      C344          C  0.1113948  0.0699103  0.1132731    0.00000       Uiso       1.00
      H255          H  0.1186281  0.0779226  0.1367326    0.00000       Uiso       1.00
      H256          H  0.1194752  0.0464798  0.1062689    0.00000       Uiso       1.00
      C345          C  0.1237000  0.0798476  0.1026249    0.00000       Uiso       1.00
      H257          H  0.1212047  0.0754701  0.0618630    0.00000       Uiso       1.00
      C346          C  0.1121146  0.1126360  0.1125637    0.00000       Uiso       1.00
      H258          H  0.1200348  0.1208843  0.1053132    0.00000       Uiso       1.00
      H259          H  0.1203073  0.1205663  0.1359679    0.00000       Uiso       1.00
      C347          C  0.0687350  0.0690514  0.0690827    0.00000       Uiso       1.00
      H260          H  0.1211087  0.0449435  0.0626712    0.00000       Uiso       1.00
      C348          C  0.0800006  0.0790407  0.0575542    0.00000       Uiso       1.00
      H261          H  0.0760278  0.0456264  0.0608716    0.00000       Uiso       1.00
      H262          H  0.0453270  0.0763001  0.0611421    0.00000       Uiso       1.00
      H263          H  0.0444796  0.1214247  0.1036986    0.00000       Uiso       1.00
      H264          H  0.0749259  0.1216117  0.1351316    0.00000       Uiso       1.00
      C349          C  0.7903398  0.4424682  0.6281339    0.00000       Uiso       1.00
      C350          C  0.8145133  0.4410084  0.6521227    0.00000       Uiso       1.00
      C351          C  0.8152822  0.4381791  0.6751500    0.00000       Uiso       1.00
      C352          C  0.8391736  0.4381791  0.6995476    0.00000       Uiso       1.00
      C353          C  0.8622816  0.4426115  0.7021045    0.00000       Uiso       1.00
      C354          C  0.8608754  0.4458476  0.6787912    0.00000       Uiso       1.00
      C355          C  0.8382886  0.4430919  0.6530603    0.00000       Uiso       1.00
        O1          O  0.7649919  0.4418595  0.6242875    0.00000       Uiso       1.00
      H265          H  0.7972391  0.4359403  0.6741262    0.00000       Uiso       1.00
      H266          H  0.8390709  0.4349859  0.7163410    0.00000       Uiso       1.00
      H267          H  0.8765800  0.4523373  0.6812096    0.00000       Uiso       1.00
      C356          C  0.9625152  0.4424413  0.6048524    0.00000       Uiso       1.00
      C357          C  0.9385246  0.4409734  0.6035830    0.00000       Uiso       1.00
      C358          C  0.9154840  0.4381872  0.5785218    0.00000       Uiso       1.00
      C359          C  0.8910775  0.4382040  0.5780313    0.00000       Uiso       1.00
      C360          C  0.8885208  0.4426177  0.6030045    0.00000       Uiso       1.00
      C361          C  0.9118555  0.4457968  0.6281173    0.00000       Uiso       1.00
      C362          C  0.9375947  0.4430201  0.6284882    0.00000       Uiso       1.00
        O2          O  0.9663458  0.4418888  0.5827596    0.00000       Uiso       1.00
      H268          H  0.9164953  0.4359830  0.5592750    0.00000       Uiso       1.00
      H269          H  0.8742750  0.4350472  0.5579617    0.00000       Uiso       1.00
      H270          H  0.9094508  0.4522691  0.6478881    0.00000       Uiso       1.00
      C363          C  0.9857304  0.4423356  0.8001940    0.00000       Uiso       1.00
      C364          C  0.9870094  0.4408664  0.7760130    0.00000       Uiso       1.00
      C365          C  0.0120919  0.4380327  0.7752357    0.00000       Uiso       1.00
      C366          C  0.0126043  0.4380351  0.7513393    0.00000       Uiso       1.00
      C367          C  0.9876313  0.4424742  0.7282358    0.00000       Uiso       1.00
      C368          C  0.9624949  0.4456989  0.7296461    0.00000       Uiso       1.00
      C369          C  0.9620998  0.4429499  0.7522444    0.00000       Uiso       1.00
        O3          O  0.0078357  0.4417202  0.8255321    0.00000       Uiso       1.00
      H271          H  0.0313355  0.4358028  0.7932851    0.00000       Uiso       1.00
      H272          H  0.0326866  0.4348505  0.7514395    0.00000       Uiso       1.00
      H273          H  0.9427279  0.4521847  0.7139413    0.00000       Uiso       1.00
      C370          C  0.9610377  0.4459908  0.8013468    0.00000       Uiso       1.00
      C371          C  0.9363284  0.4466732  0.7778459    0.00000       Uiso       1.00
      C372          C  0.9112966  0.4497327  0.7789177    0.00000       Uiso       1.00
      C373          C  0.8870752  0.4492929  0.7548527    0.00000       Uiso       1.00
      C374          C  0.8877841  0.4441509  0.7286887    0.00000       Uiso       1.00
      C375          C  0.9134294  0.4404836  0.7279533    0.00000       Uiso       1.00
      C376          C  0.9371151  0.4437559  0.7524951    0.00000       Uiso       1.00
        O4          O  0.9639961  0.4480599  0.8275276    0.00000       Uiso       1.00
      H274          H  0.9105666  0.4525772  0.7985644    0.00000       Uiso       1.00
      H275          H  0.8680254  0.4527868  0.7570584    0.00000       Uiso       1.00
      H276          H  0.9155825  0.4334081  0.7079107    0.00000       Uiso       1.00
      C377          C  0.9847209  0.4460404  0.6295282    0.00000       Uiso       1.00
      C378          C  0.9852589  0.4466678  0.6542243    0.00000       Uiso       1.00
      C379          C  0.0083205  0.4496586  0.6792358    0.00000       Uiso       1.00
      C380          C  0.0089217  0.4491710  0.7034426    0.00000       Uiso       1.00
      C381          C  0.9871729  0.4440546  0.7027437    0.00000       Uiso       1.00
      C382          C  0.9644446  0.4404524  0.6771166    0.00000       Uiso       1.00
      C383          C  0.9620321  0.4437676  0.6534477    0.00000       Uiso       1.00
        O5          O  0.0058671  0.4481245  0.6265666    0.00000       Uiso       1.00
      H277          H  0.0258585  0.4524995  0.6799651    0.00000       Uiso       1.00
      H278          H  0.0267000  0.4526177  0.7224757    0.00000       Uiso       1.00
      H279          H  0.9493088  0.4333820  0.6749523    0.00000       Uiso       1.00
      C384          C  0.7892109  0.4460983  0.6059349    0.00000       Uiso       1.00
      C385          C  0.8127244  0.4467661  0.6054056    0.00000       Uiso       1.00
      C386          C  0.8116792  0.4497777  0.5823451    0.00000       Uiso       1.00
      C387          C  0.8357586  0.4493076  0.5817345    0.00000       Uiso       1.00
      C388          C  0.8619156  0.4441990  0.6034827    0.00000       Uiso       1.00
      C389          C  0.8626208  0.4405876  0.6262200    0.00000       Uiso       1.00
      C390          C  0.8380616  0.4438740  0.6286316    0.00000       Uiso       1.00
        O6          O  0.7630405  0.4481555  0.5847793    0.00000       Uiso       1.00
      H280          H  0.7920349  0.4526134  0.5648114    0.00000       Uiso       1.00
      H281          H  0.8335627  0.4527580  0.5639479    0.00000       Uiso       1.00
      H282          H  0.8826562  0.4335257  0.6413603    0.00000       Uiso       1.00
        B1          B  0.7478198  0.4454781  0.5966783    0.00000       Uiso       1.00
        B2          B  0.9939553  0.4455014  0.5967953    0.00000       Uiso       1.00
        B3          B  0.9937878  0.4453571  0.8427262    0.00000       Uiso       1.00
      C391          C  0.4423836  0.7903171  0.6048132    0.00000       Uiso       1.00
      C392          C  0.4409340  0.8145158  0.6035483    0.00000       Uiso       1.00
      C393          C  0.4381233  0.8153020  0.5784792    0.00000       Uiso       1.00
      C394          C  0.4381324  0.8392181  0.5779821    0.00000       Uiso       1.00
      C395          C  0.4425545  0.8623340  0.6029552    0.00000       Uiso       1.00
      C396          C  0.4457715  0.8609099  0.6280794    0.00000       Uiso       1.00
      C397          C  0.4430082  0.8382989  0.6284602    0.00000       Uiso       1.00
        O7          O  0.4417812  0.7649585  0.5827093    0.00000       Uiso       1.00
      H283          H  0.4358920  0.7972530  0.5592285    0.00000       Uiso       1.00
      H284          H  0.4349542  0.8391283  0.5579078    0.00000       Uiso       1.00
      H285          H  0.4522511  0.8766190  0.6478453    0.00000       Uiso       1.00
      C398          C  0.4422841  0.9625331  0.8001705    0.00000       Uiso       1.00
      C399          C  0.4408247  0.9385343  0.7759901    0.00000       Uiso       1.00
      C400          C  0.4380315  0.9154696  0.7752173    0.00000       Uiso       1.00
      C401          C  0.4380559  0.8910548  0.7513258    0.00000       Uiso       1.00
      C402          C  0.4424833  0.8885130  0.7282234    0.00000       Uiso       1.00
      C403          C  0.4456689  0.9118716  0.7296308    0.00000       Uiso       1.00
      C404          C  0.4428869  0.9376206  0.7522171    0.00000       Uiso       1.00
        O8          O  0.4417156  0.9663498  0.8255256    0.00000       Uiso       1.00
      H286          H  0.4358159  0.9164687  0.7932600    0.00000       Uiso       1.00
      H287          H  0.4348940  0.8742340  0.7514310    0.00000       Uiso       1.00
      H288          H  0.4521492  0.9094775  0.7139356    0.00000       Uiso       1.00
      C405          C  0.4423065  0.9858916  0.6280667    0.00000       Uiso       1.00
      C406          C  0.4408216  0.9871549  0.6520417    0.00000       Uiso       1.00
      C407          C  0.4379824  0.0122459  0.6750617    0.00000       Uiso       1.00
      C408          C  0.4379679  0.0127419  0.6994562    0.00000       Uiso       1.00
      C409          C  0.4423943  0.9877432  0.7020137    0.00000       Uiso       1.00
      C410          C  0.4456251  0.9625981  0.6786975    0.00000       Uiso       1.00
      C411          C  0.4428946  0.9622197  0.6529737    0.00000       Uiso       1.00
        O9          O  0.4417023  0.0080219  0.6242291    0.00000       Uiso       1.00
      H289          H  0.4357609  0.0315092  0.6740346    0.00000       Uiso       1.00
      H290          H  0.4347801  0.0328321  0.7162504    0.00000       Uiso       1.00
      H291          H  0.4520998  0.9428115  0.6811101    0.00000       Uiso       1.00
      C412          C  0.4459669  0.9611903  0.6058815    0.00000       Uiso       1.00
      C413          C  0.4466404  0.9364563  0.6053466    0.00000       Uiso       1.00
      C414          C  0.4497057  0.9114158  0.5823083    0.00000       Uiso       1.00
      C415          C  0.4492575  0.8871699  0.5817037    0.00000       Uiso       1.00
      C416          C  0.4441024  0.8878628  0.6034216    0.00000       Uiso       1.00
      C417          C  0.4404300  0.9135174  0.6261299    0.00000       Uiso       1.00
      C418          C  0.4437082  0.9372268  0.6285520    0.00000       Uiso       1.00
       O10          O  0.4480510  0.9641670  0.5847432    0.00000       Uiso       1.00
      H292          H  0.4525611  0.9106982  0.5647870    0.00000       Uiso       1.00
      H293          H  0.4527557  0.8681141  0.5639463    0.00000       Uiso       1.00
      H294          H  0.4333470  0.9156598  0.6412426    0.00000       Uiso       1.00
      C419          C  0.4458894  0.9847620  0.8013058    0.00000       Uiso       1.00
      C420          C  0.4465331  0.9853170  0.7777913    0.00000       Uiso       1.00
      C421          C  0.4495309  0.0084024  0.7788389    0.00000       Uiso       1.00
      C422          C  0.4490604  0.0090207  0.7547626    0.00000       Uiso       1.00
      C423          C  0.4439556  0.9872663  0.7286085    0.00000       Uiso       1.00
      C424          C  0.4403468  0.9645140  0.7278985    0.00000       Uiso       1.00
      C425          C  0.4436429  0.9620831  0.7524511    0.00000       Uiso       1.00
       O11          O  0.4479626  0.0059121  0.8274863    0.00000       Uiso       1.00
      H295          H  0.4523636  0.0259456  0.7984802    0.00000       Uiso       1.00
      H296          H  0.4525110  0.0268168  0.7569584    0.00000       Uiso       1.00
      H297          H  0.4332870  0.9493744  0.7078673    0.00000       Uiso       1.00
      C426          C  0.4459949  0.7891711  0.6294946    0.00000       Uiso       1.00
      C427          C  0.4466540  0.8126917  0.6541964    0.00000       Uiso       1.00
      C428          C  0.4496469  0.8116291  0.6792046    0.00000       Uiso       1.00
      C429          C  0.4491689  0.8357162  0.7034167    0.00000       Uiso       1.00
      C430          C  0.4440720  0.8618988  0.7027286    0.00000       Uiso       1.00
      C431          C  0.4404799  0.8626213  0.6771044    0.00000       Uiso       1.00
      C432          C  0.4437726  0.8380545  0.6534264    0.00000       Uiso       1.00
       O12          O  0.4480440  0.7629767  0.6265289    0.00000       Uiso       1.00
      H298          H  0.4524739  0.7919652  0.6799211    0.00000       Uiso       1.00
      H299          H  0.4526041  0.8335059  0.7224425    0.00000       Uiso       1.00
      H300          H  0.4334292  0.8826764  0.6749488    0.00000       Uiso       1.00
        B4          B  0.4453825  0.7477602  0.5967478    0.00000       Uiso       1.00
        B5          B  0.4453252  0.9939770  0.8427089    0.00000       Uiso       1.00
        B6          B  0.4453518  0.9939802  0.5966372    0.00000       Uiso       1.00
       Si1         Si  0.3916291  0.3917109  0.5841794    0.00000       Uiso       1.00
        B7          B  0.4011200  0.4021823  0.5504503    0.00000       Uiso       1.00
       O13          O  0.3882717  0.4151956  0.5720106    0.00000       Uiso       1.00
       O14          O  0.4150868  0.3594129  0.5720024    0.00000       Uiso       1.00
        B8          B  0.4020751  0.3380132  0.5504375    0.00000       Uiso       1.00
        B9          B  0.3379619  0.4012215  0.5504551    0.00000       Uiso       1.00
       O15          O  0.3593529  0.3883520  0.5720053    0.00000       Uiso       1.00
       O16          O  0.3994375  0.3755541  0.5276244    0.00000       Uiso       1.00
       O17          O  0.3754621  0.3435023  0.5276121    0.00000       Uiso       1.00
       O18          O  0.3434397  0.3995512  0.5276325    0.00000       Uiso       1.00
       Si2         Si  0.3688461  0.3689444  0.5158338    0.00000       Uiso       1.00
      C433          C  0.4046048  0.4046454  0.6229774    0.00000       Uiso       1.00
       O19          O  0.4273532  0.4084159  0.6356765    0.00000       Uiso       1.00
       O20          O  0.3883359  0.4100490  0.6375777    0.00000       Uiso       1.00
      H301          H  0.3976434  0.4170625  0.6587733    0.00000       Uiso       1.00
      C434          C  0.3558541  0.3560257  0.4770331    0.00000       Uiso       1.00
       O21          O  0.3342661  0.3500490  0.4643391    0.00000       Uiso       1.00
       O22          O  0.3707756  0.3531678  0.4624243    0.00000       Uiso       1.00
      H302          H  0.3615947  0.3459032  0.4412295    0.00000       Uiso       1.00
       Si3         Si  0.3914501  0.3917920  0.1991235    0.00000       Uiso       1.00
       B10          B  0.4018842  0.4012588  0.2527776    0.00000       Uiso       1.00
       O23          O  0.4149034  0.3884165  0.2313881    0.00000       Uiso       1.00
       O24          O  0.3591690  0.4152608  0.2024772    0.00000       Uiso       1.00
       B11          B  0.3377805  0.4022377  0.1896418    0.00000       Uiso       1.00
       B12          B  0.4009451  0.3380802  0.1886756    0.00000       Uiso       1.00
       O25          O  0.3880968  0.3594979  0.1756680    0.00000       Uiso       1.00
       O26          O  0.3752680  0.3995696  0.2473048    0.00000       Uiso       1.00
       O27          O  0.3432568  0.3755981  0.1913305    0.00000       Uiso       1.00
       O28          O  0.3992589  0.3435446  0.2152897    0.00000       Uiso       1.00
       Si4         Si  0.3686669  0.3689624  0.2219029    0.00000       Uiso       1.00
      C435          C  0.4043941  0.4047942  0.1862451    0.00000       Uiso       1.00
       O29          O  0.4081620  0.4275576  0.2000624    0.00000       Uiso       1.00
       O30          O  0.4098075  0.3885281  0.1607894    0.00000       Uiso       1.00
      H303          H  0.4168255  0.3978509  0.1559193    0.00000       Uiso       1.00
      C436          C  0.3557387  0.3559439  0.2347833    0.00000       Uiso       1.00
       O31          O  0.3497664  0.3343421  0.2199170    0.00000       Uiso       1.00
       O32          O  0.3528687  0.3708611  0.2614436    0.00000       Uiso       1.00
      H304          H  0.3455999  0.3616652  0.2661888    0.00000       Uiso       1.00
      C437          C  0.9626128  0.7900344  0.1481256    0.00000       Uiso       1.00
      C438          C  0.9386123  0.8142270  0.1495794    0.00000       Uiso       1.00
      C439          C  0.9155801  0.8149902  0.1523930    0.00000       Uiso       1.00
      C440          C  0.8911711  0.8389016  0.1523884    0.00000       Uiso       1.00
      C441          C  0.8886077  0.8620365  0.1479684    0.00000       Uiso       1.00
      C442          C  0.9119263  0.8606358  0.1447484    0.00000       Uiso       1.00
      C443          C  0.9376680  0.8380283  0.1475066    0.00000       Uiso       1.00
       O33          O  0.9664672  0.7646608  0.1487265    0.00000       Uiso       1.00
      H305          H  0.9166089  0.7969269  0.1546231    0.00000       Uiso       1.00
      H306          H  0.8743740  0.8387931  0.1555686    0.00000       Uiso       1.00
      H307          H  0.9095042  0.8763614  0.1382710    0.00000       Uiso       1.00
      C444          C  0.9858482  0.9623901  0.1482281    0.00000       Uiso       1.00
      C445          C  0.9871247  0.9383739  0.1496862    0.00000       Uiso       1.00
      C446          C  0.0121969  0.9153119  0.1524744    0.00000       Uiso       1.00
      C447          C  0.0126947  0.8908806  0.1524490    0.00000       Uiso       1.00
      C448          C  0.9877183  0.8883205  0.1480259    0.00000       Uiso       1.00
      C449          C  0.9625944  0.9116771  0.1448454    0.00000       Uiso       1.00
      C450          C  0.9622155  0.9374403  0.1476280    0.00000       Uiso       1.00
       O34          O  0.0079443  0.9662281  0.1487935    0.00000       Uiso       1.00
      H308          H  0.0314466  0.9163259  0.1546868    0.00000       Uiso       1.00
      H309          H  0.0327723  0.8740618  0.1556067    0.00000       Uiso       1.00
      H310          H  0.9428220  0.9092720  0.1383693    0.00000       Uiso       1.00
      C451          C  0.7904642  0.9855936  0.1482355    0.00000       Uiso       1.00
      C452          C  0.8146489  0.9868771  0.1497166    0.00000       Uiso       1.00
      C453          C  0.8154188  0.0119828  0.1525564    0.00000       Uiso       1.00
      C454          C  0.8393195  0.0125001  0.1525673    0.00000       Uiso       1.00
      C455          C  0.8624350  0.9875097  0.1481370    0.00000       Uiso       1.00
      C456          C  0.8610324  0.9623499  0.1449062    0.00000       Uiso       1.00
      C457          C  0.8384296  0.9619480  0.1476395    0.00000       Uiso       1.00
       O35          O  0.7651151  0.0077163  0.1488443    0.00000       Uiso       1.00
      H311          H  0.7973602  0.0312410  0.1547808    0.00000       Uiso       1.00
      H312          H  0.8392128  0.0326003  0.1557554    0.00000       Uiso       1.00
      H313          H  0.8767471  0.9425710  0.1384296    0.00000       Uiso       1.00
      C458          C  0.7893190  0.9608785  0.1445750    0.00000       Uiso       1.00
      C459          C  0.8128316  0.9361488  0.1438972    0.00000       Uiso       1.00
      C460          C  0.8117675  0.9110937  0.1408317    0.00000       Uiso       1.00
      C461          C  0.8358440  0.8868515  0.1412753    0.00000       Uiso       1.00
      C462          C  0.8620116  0.8875616  0.1464256    0.00000       Uiso       1.00
      C463          C  0.8627388  0.9132302  0.1500983    0.00000       Uiso       1.00
      C464          C  0.8381863  0.9369385  0.1468252    0.00000       Uiso       1.00
       O36          O  0.7631330  0.9638369  0.1424952    0.00000       Uiso       1.00
      H314          H  0.7921179  0.9103619  0.1379796    0.00000       Uiso       1.00
      H315          H  0.8336439  0.8677848  0.1377774    0.00000       Uiso       1.00
      H316          H  0.8827833  0.9153832  0.1571770    0.00000       Uiso       1.00
      C465          C  0.9611623  0.9846171  0.1446280    0.00000       Uiso       1.00
      C466          C  0.9364614  0.9851516  0.1439881    0.00000       Uiso       1.00
      C467          C  0.9114396  0.0082347  0.1409956    0.00000       Uiso       1.00
      C468          C  0.8872281  0.0088317  0.1414696    0.00000       Uiso       1.00
      C469          C  0.8879322  0.9870566  0.1465723    0.00000       Uiso       1.00
      C470          C  0.9135700  0.9643067  0.1501758    0.00000       Uiso       1.00
      C471          C  0.9372445  0.9618988  0.1468767    0.00000       Uiso       1.00
       O37          O  0.9641188  0.0057870  0.1425558    0.00000       Uiso       1.00
      H317          H  0.9107055  0.0257929  0.1381642    0.00000       Uiso       1.00
      H318          H  0.8681869  0.0266276  0.1380232    0.00000       Uiso       1.00
      H319          H  0.9157379  0.9491499  0.1572334    0.00000       Uiso       1.00
      C472          C  0.9848168  0.7889113  0.1445116    0.00000       Uiso       1.00
      C473          C  0.9853395  0.8124496  0.1438536    0.00000       Uiso       1.00
      C474          C  0.0084054  0.8114100  0.1408578    0.00000       Uiso       1.00
      C475          C  0.0090090  0.8355138  0.1413365    0.00000       Uiso       1.00
      C476          C  0.9872479  0.8616893  0.1464366    0.00000       Uiso       1.00
      C477          C  0.9645056  0.8623881  0.1500314    0.00000       Uiso       1.00
      C478          C  0.9621013  0.8378061  0.1467387    0.00000       Uiso       1.00
       O38          O  0.0059846  0.7627198  0.1424589    0.00000       Uiso       1.00
      H320          H  0.0259485  0.7917512  0.1380279    0.00000       Uiso       1.00
      H321          H  0.0268001  0.8333216  0.1378992    0.00000       Uiso       1.00
      H322          H  0.9493554  0.8824353  0.1570838    0.00000       Uiso       1.00
       B13          B  0.9940871  0.7474792  0.1451211    0.00000       Uiso       1.00
       B14          B  0.9938982  0.9938664  0.1451876    0.00000       Uiso       1.00
       B15          B  0.7479224  0.9936542  0.1451972    0.00000       Uiso       1.00
       Si5         Si  0.0063543  0.3912096  0.1990285    0.00000       Uiso       1.00
       B16          B  0.0400887  0.4007251  0.1885917    0.00000       Uiso       1.00
       O39          O  0.0185305  0.3878707  0.1755776    0.00000       Uiso       1.00
       O40          O  0.0185208  0.4146664  0.2313028    0.00000       Uiso       1.00
       B17          B  0.0400894  0.4016274  0.2526838    0.00000       Uiso       1.00
       B18          B  0.0401022  0.3375016  0.1895282    0.00000       Uiso       1.00
       O41          O  0.0185394  0.3588998  0.2023782    0.00000       Uiso       1.00
       O42          O  0.0629143  0.3990227  0.2151996    0.00000       Uiso       1.00
       O43          O  0.0629278  0.3749959  0.2472041    0.00000       Uiso       1.00
       O44          O  0.0629269  0.3429877  0.1912110    0.00000       Uiso       1.00
       Si6         Si  0.0747148  0.3683966  0.2217966    0.00000       Uiso       1.00
      C479          C  0.9675474  0.4042024  0.1860931    0.00000       Uiso       1.00
       O45          O  0.9548401  0.4269750  0.1823286    0.00000       Uiso       1.00
       O46          O  0.9529502  0.3879188  0.1806822    0.00000       Uiso       1.00
      H323          H  0.9317493  0.3972379  0.1736689    0.00000       Uiso       1.00
      C480          C  0.1135240  0.3553874  0.2347162    0.00000       Uiso       1.00
       O47          O  0.1262256  0.3337747  0.2406848    0.00000       Uiso       1.00
       O48          O  0.1281306  0.3703244  0.2375841    0.00000       Uiso       1.00
      H324          H  0.1493306  0.3611319  0.2448481    0.00000       Uiso       1.00
      C481          C  0.9858720  0.7904000  0.6279874    0.00000       Uiso       1.00
      C482          C  0.9871383  0.8145816  0.6519842    0.00000       Uiso       1.00
      C483          C  0.0122127  0.8153394  0.6750085    0.00000       Uiso       1.00
      C484          C  0.0127108  0.8392385  0.6994140    0.00000       Uiso       1.00
      C485          C  0.9877331  0.8623644  0.7019814    0.00000       Uiso       1.00
      C486          C  0.9626037  0.8609688  0.6786706    0.00000       Uiso       1.00
      C487          C  0.9622224  0.8383763  0.6529329    0.00000       Uiso       1.00
       O49          O  0.0079795  0.7650328  0.6241295    0.00000       Uiso       1.00
      H325          H  0.0314665  0.7972817  0.6739764    0.00000       Uiso       1.00
      H326          H  0.0327893  0.8391272  0.7162050    0.00000       Uiso       1.00
      H327          H  0.9428339  0.8766851  0.6810960    0.00000       Uiso       1.00
      C488          C  0.7904856  0.9627321  0.6047914    0.00000       Uiso       1.00
      C489          C  0.8146697  0.9387220  0.6035107    0.00000       Uiso       1.00
      C490          C  0.8154423  0.9156748  0.5784424    0.00000       Uiso       1.00
      C491          C  0.8393371  0.8912482  0.5779402    0.00000       Uiso       1.00
      C492          C  0.8624430  0.8886763  0.6029084    0.00000       Uiso       1.00
      C493          C  0.8610358  0.9120176  0.6280286    0.00000       Uiso       1.00
      C494          C  0.8384467  0.9377785  0.6284118    0.00000       Uiso       1.00
       O50          O  0.7651262  0.9665772  0.5827036    0.00000       Uiso       1.00
      H328          H  0.7973967  0.9166970  0.5591989    0.00000       Uiso       1.00
      H329          H  0.8392318  0.8744418  0.5578657    0.00000       Uiso       1.00
      H330          H  0.8767328  0.9096008  0.6477950    0.00000       Uiso       1.00
      C495          C  0.9626217  0.9858669  0.8001153    0.00000       Uiso       1.00
      C496          C  0.9386425  0.9871594  0.7759386    0.00000       Uiso       1.00
      C497          C  0.9156200  0.0122633  0.7751735    0.00000       Uiso       1.00
      C498          C  0.8912211  0.0127884  0.7512808    0.00000       Uiso       1.00
      C499          C  0.8886612  0.9878063  0.7281686    0.00000       Uiso       1.00
      C500          C  0.9119803  0.9626477  0.7295666    0.00000       Uiso       1.00
      C501          C  0.9377092  0.9622409  0.7521615    0.00000       Uiso       1.00
       O51          O  0.9664612  0.0079777  0.8254604    0.00000       Uiso       1.00
      H331          H  0.9166483  0.0315140  0.7932294    0.00000       Uiso       1.00
      H332          H  0.8744251  0.0328877  0.7513907    0.00000       Uiso       1.00
      H333          H  0.9095655  0.9428720  0.7138544    0.00000       Uiso       1.00
      C502          C  0.9848095  0.9611528  0.8012562    0.00000       Uiso       1.00
      C503          C  0.9853434  0.9364347  0.7777469    0.00000       Uiso       1.00
      C504          C  0.0083848  0.9113812  0.7788064    0.00000       Uiso       1.00
      C505          C  0.0089886  0.8871517  0.7547334    0.00000       Uiso       1.00
      C506          C  0.9872673  0.8878748  0.7285737    0.00000       Uiso       1.00
      C507          C  0.9645564  0.9135422  0.7278509    0.00000       Uiso       1.00
      C508          C  0.9621342  0.9372352  0.7524002    0.00000       Uiso       1.00
       O52          O  0.0059516  0.9641001  0.8274344    0.00000       Uiso       1.00
      H334          H  0.0259088  0.9106404  0.7984498    0.00000       Uiso       1.00
      H335          H  0.0267481  0.8680846  0.7569296    0.00000       Uiso       1.00
      H336          H  0.9494420  0.9157075  0.7078124    0.00000       Uiso       1.00
      C509          C  0.7893504  0.9849437  0.6294739    0.00000       Uiso       1.00
      C510          C  0.8128691  0.9854694  0.6541667    0.00000       Uiso       1.00
      C511          C  0.8118221  0.0085374  0.6791853    0.00000       Uiso       1.00
      C512          C  0.8359028  0.0091267  0.7033890    0.00000       Uiso       1.00
      C513          C  0.8620613  0.9873604  0.7026800    0.00000       Uiso       1.00
      C514          C  0.8627712  0.9646261  0.6770459    0.00000       Uiso       1.00
      C515          C  0.8382136  0.9622236  0.6533793    0.00000       Uiso       1.00
       O53          O  0.7631660  0.0061089  0.6265228    0.00000       Uiso       1.00
      H337          H  0.7921774  0.0260897  0.6799229    0.00000       Uiso       1.00
      H338          H  0.8337069  0.0269101  0.7224277    0.00000       Uiso       1.00
      H339          H  0.8828064  0.9494791  0.6748750    0.00000       Uiso       1.00
      C516          C  0.9611856  0.7892812  0.6057909    0.00000       Uiso       1.00
      C517          C  0.9364800  0.8128148  0.6052729    0.00000       Uiso       1.00
      C518          C  0.9114668  0.8117804  0.5822152    0.00000       Uiso       1.00
      C519          C  0.8872513  0.8358805  0.5816162    0.00000       Uiso       1.00
      C520          C  0.8879412  0.8620484  0.6033738    0.00000       Uiso       1.00
      C521          C  0.9135706  0.8627428  0.6261083    0.00000       Uiso       1.00
      C522          C  0.9372516  0.8381616  0.6285076    0.00000       Uiso       1.00
       O54          O  0.9641506  0.7630997  0.5846259    0.00000       Uiso       1.00
      H340          H  0.9107491  0.7921286  0.5646746    0.00000       Uiso       1.00
      H341          H  0.8682214  0.8336916  0.5638310    0.00000       Uiso       1.00
      H342          H  0.9157284  0.8827876  0.6412562    0.00000       Uiso       1.00
       B19          B  0.9939370  0.7478602  0.5965160    0.00000       Uiso       1.00
       B20          B  0.7479402  0.9942026  0.5967504    0.00000       Uiso       1.00
       B21          B  0.9940568  0.9939093  0.8426451    0.00000       Uiso       1.00
       Si7         Si  0.3915036  0.0068186  0.1990528    0.00000       Uiso       1.00
       B22          B  0.4009910  0.0405534  0.2527115    0.00000       Uiso       1.00
       O55          O  0.3881478  0.0189838  0.2313242    0.00000       Uiso       1.00
       O56          O  0.4149548  0.0190029  0.2023963    0.00000       Uiso       1.00
       B23          B  0.4019369  0.0405983  0.1895660    0.00000       Uiso       1.00
       B24          B  0.3378328  0.0405907  0.1886303    0.00000       Uiso       1.00
       O57          O  0.3592251  0.0190219  0.1756098    0.00000       Uiso       1.00
       O58          O  0.3993013  0.0634057  0.2472396    0.00000       Uiso       1.00
       O59          O  0.3753213  0.0634501  0.1912685    0.00000       Uiso       1.00
       O60          O  0.3433070  0.0634222  0.2152465    0.00000       Uiso       1.00
       Si8         Si  0.3687073  0.0752259  0.2218490    0.00000       Uiso       1.00
      C523          C  0.4044866  0.9679854  0.1861649    0.00000       Uiso       1.00
       O61          O  0.4272374  0.9552630  0.1999729    0.00000       Uiso       1.00
       O62          O  0.3882206  0.9533857  0.1607127    0.00000       Uiso       1.00
      H343          H  0.3975323  0.9321695  0.1558367    0.00000       Uiso       1.00
      C524          C  0.3557077  0.1140615  0.2347389    0.00000       Uiso       1.00
       O63          O  0.3341170  0.1267793  0.2198812    0.00000       Uiso       1.00
       O64          O  0.3706266  0.1286695  0.2613966    0.00000       Uiso       1.00
      H344          H  0.3614416  0.1498849  0.2661476    0.00000       Uiso       1.00
