data_113
_audit_creation_date              0000-00-00
_audit_creation_method            'LanYouShi'
_symmetry_space_group_name_H-M    'P1'
_cell_length_a                    56.8064003
_cell_length_b                    56.8064003
_cell_length_c                    56.8064003
_cell_angle_alpha                 120.0000000
_cell_angle_beta                  59.9777985
_cell_angle_gamma                 120.0245972
loop_
_atom_site_label
_atom_site_type_symbol
_atom_site_fract_x
_atom_site_fract_y
_atom_site_fract_z
_atom_site_U_iso_or_equiv
_atom_site_adp_type
_atom_site_occupancy
        C1          C  0.7238331  0.5840569  0.4460666    0.00000       Uiso       1.00
        C2          C  0.7088481  0.5564188  0.4481961    0.00000       Uiso       1.00
        C3          C  0.6792970  0.5437574  0.4524690    0.00000       Uiso       1.00
        C4          C  0.7088639  0.5988356  0.4481818    0.00000       Uiso       1.00
        C5          C  0.6793128  0.5862096  0.4524547    0.00000       Uiso       1.00
        C6          C  0.6638716  0.5578607  0.4536546    0.00000       Uiso       1.00
        H1          H  0.4800593  0.5445096  0.4006504    0.00000       Uiso       1.00
        H2          H  0.7207615  0.6213661  0.4464210    0.00000       Uiso       1.00
        H3          H  0.7207327  0.5440280  0.4464469    0.00000       Uiso       1.00
        C7          C  0.4191043  0.2794202  0.4159671    0.00000       Uiso       1.00
        C8          C  0.4467524  0.2943952  0.4011745    0.00000       Uiso       1.00
        C9          C  0.4594195  0.3239407  0.4137857    0.00000       Uiso       1.00
       C10          C  0.4043214  0.2943937  0.4436040    0.00000       Uiso       1.00
       C11          C  0.4169531  0.3239391  0.4562506    0.00000       Uiso       1.00
       C12          C  0.4453119  0.3393704  0.4421331    0.00000       Uiso       1.00
        H4          H  0.6683983  0.5230176  0.4554972    0.00000       Uiso       1.00
        H5          H  0.4586498  0.5231961  0.6656117    0.00000       Uiso       1.00
        H6          H  0.3817827  0.2825042  0.4560060    0.00000       Uiso       1.00
        H7          H  0.4591468  0.2825070  0.3786446    0.00000       Uiso       1.00
       C13          C  0.4190206  0.5539010  0.4156872    0.00000       Uiso       1.00
       C14          C  0.4042313  0.5517847  0.4433299    0.00000       Uiso       1.00
       C15          C  0.4168504  0.5475253  0.4559878    0.00000       Uiso       1.00
       C16          C  0.4466623  0.5517862  0.4009004    0.00000       Uiso       1.00
       C17          C  0.4593168  0.5475269  0.4135229    0.00000       Uiso       1.00
       C18          C  0.4452030  0.5463406  0.4418759    0.00000       Uiso       1.00
        H8          H  0.4590617  0.5535364  0.3783659    0.00000       Uiso       1.00
        H9          H  0.3816976  0.5535336  0.4557273    0.00000       Uiso       1.00
       C19          C  0.4492604  0.5842329  0.7210029    0.00000       Uiso       1.00
       C20          C  0.4513867  0.5990123  0.7060233    0.00000       Uiso       1.00
       C21          C  0.4556517  0.5863875  0.6764813    0.00000       Uiso       1.00
       C22          C  0.4513709  0.5565954  0.7060376    0.00000       Uiso       1.00
       C23          C  0.4556359  0.5439354  0.6764956    0.00000       Uiso       1.00
       C24          C  0.4568321  0.5580392  0.6610602    0.00000       Uiso       1.00
       H10          H  0.4040827  0.3348286  0.4769902    0.00000       Uiso       1.00
       H11          H  0.4496126  0.5442042  0.7179309    0.00000       Uiso       1.00
       H12          H  0.4496413  0.6215423  0.7179050    0.00000       Uiso       1.00
       C25          C  0.6637944  0.6045517  0.4567554    0.00000       Uiso       1.00
        O1          O  0.6377906  0.5943539  0.4605905    0.00000       Uiso       1.00
        O2          O  0.6788409  0.6320235  0.4563125    0.00000       Uiso       1.00
       H13          H  0.6660757  0.6403880  0.4592964    0.00000       Uiso       1.00
       C26          C  0.4599659  0.6047303  0.6609501    0.00000       Uiso       1.00
        O3          O  0.4637948  0.5945336  0.6349536    0.00000       Uiso       1.00
        O4          O  0.4595428  0.6322019  0.6759770    0.00000       Uiso       1.00
       H14          H  0.4625331  0.6405669  0.6632060    0.00000       Uiso       1.00
       C27          C  0.3984962  0.5432225  0.4855590    0.00000       Uiso       1.00
        O5          O  0.4086876  0.5393989  0.4975352    0.00000       Uiso       1.00
        O6          O  0.3710205  0.5436498  0.4984309    0.00000       Uiso       1.00
       H15          H  0.3626483  0.5406666  0.5165838    0.00000       Uiso       1.00
       C28          C  0.4889956  0.3394655  0.3954290    0.00000       Uiso       1.00
        O7          O  0.5009799  0.3654647  0.4056135    0.00000       Uiso       1.00
        O8          O  0.5018631  0.3244299  0.3679586    0.00000       Uiso       1.00
       H16          H  0.5200200  0.3371979  0.3595839    0.00000       Uiso       1.00
       C29          C  0.6317244  0.5454925  0.4611790    0.00000       Uiso       1.00
       C30          C  0.6174924  0.5517534  0.4517917    0.00000       Uiso       1.00
       C31          C  0.5872889  0.5413735  0.4601786    0.00000       Uiso       1.00
       C32          C  0.6148347  0.5280987  0.4787986    0.00000       Uiso       1.00
       C33          C  0.5847938  0.5172580  0.4866845    0.00000       Uiso       1.00
       C34          C  0.5701669  0.5239851  0.4780534    0.00000       Uiso       1.00
       H17          H  0.5218692  0.4256188  0.4530175    0.00000       Uiso       1.00
       H18          H  0.4995077  0.5003407  0.4324630    0.00000       Uiso       1.00
       H19          H  0.6297537  0.5647448  0.4378968    0.00000       Uiso       1.00
       C35          C  0.4575034  0.3715166  0.4545398    0.00000       Uiso       1.00
       C36          C  0.4873747  0.3858314  0.4483708    0.00000       Uiso       1.00
       C37          C  0.4987229  0.4160301  0.4589015    0.00000       Uiso       1.00
       C38          C  0.4392993  0.3883190  0.4719724    0.00000       Uiso       1.00
       C39          C  0.4505219  0.4183469  0.4829718    0.00000       Uiso       1.00
       C40          C  0.4804962  0.4330613  0.4763436    0.00000       Uiso       1.00
       H20          H  0.5777661  0.5473196  0.4525045    0.00000       Uiso       1.00
       H21          H  0.4553881  0.4814102  0.5748543    0.00000       Uiso       1.00
       H22          H  0.5020567  0.3736398  0.4353456    0.00000       Uiso       1.00
       C41          C  0.4576296  0.5389354  0.4541885    0.00000       Uiso       1.00
       C42          C  0.4513390  0.5483328  0.4840875    0.00000       Uiso       1.00
       C43          C  0.4618019  0.5400789  0.4955651    0.00000       Uiso       1.00
       C44          C  0.4751577  0.5214568  0.4360982    0.00000       Uiso       1.00
       C45          C  0.4860755  0.5137053  0.4474541    0.00000       Uiso       1.00
       C46          C  0.4792987  0.5223232  0.4774544    0.00000       Uiso       1.00
       H23          H  0.5027592  0.5677767  0.5702755    0.00000       Uiso       1.00
       H24          H  0.5729988  0.5039074  0.5001371    0.00000       Uiso       1.00
       H25          H  0.4382598  0.5621341  0.4986987    0.00000       Uiso       1.00
       C47          C  0.4642742  0.5458048  0.6289033    0.00000       Uiso       1.00
       C48          C  0.4817325  0.5639766  0.6120498    0.00000       Uiso       1.00
       C49          C  0.4894166  0.5527271  0.5820257    0.00000       Uiso       1.00
       C50          C  0.4548642  0.5159285  0.6146209    0.00000       Uiso       1.00
       C51          C  0.4630638  0.5045545  0.5844193    0.00000       Uiso       1.00
       C52          C  0.4807860  0.5227522  0.5673438    0.00000       Uiso       1.00
       H26          H  0.4558252  0.5477445  0.5187165    0.00000       Uiso       1.00
       H27          H  0.4354553  0.4300678  0.4963479    0.00000       Uiso       1.00
       H28          H  0.4903158  0.5870427  0.6218733    0.00000       Uiso       1.00
       C53          C  0.6288301  0.5213977  0.4909733    0.00000       Uiso       1.00
        O9          O  0.6136931  0.5061392  0.5063457    0.00000       Uiso       1.00
       O10          O  0.6579245  0.5323508  0.4847286    0.00000       Uiso       1.00
       H29          H  0.6630985  0.5261768  0.4939174    0.00000       Uiso       1.00
       C54          C  0.4352599  0.4950508  0.6320108    0.00000       Uiso       1.00
       O11          O  0.4270713  0.4689076  0.6194173    0.00000       Uiso       1.00
       O12          O  0.4270013  0.5055187  0.6612905    0.00000       Uiso       1.00
       H30          H  0.4149258  0.4897971  0.6687403    0.00000       Uiso       1.00
       C55          C  0.4819256  0.5092757  0.4032109    0.00000       Uiso       1.00
       O13          O  0.4972995  0.4940295  0.3877453    0.00000       Uiso       1.00
       O14          O  0.4709049  0.5153759  0.3912683    0.00000       Uiso       1.00
       H31          H  0.4771345  0.5062043  0.3707271    0.00000       Uiso       1.00
       C56          C  0.4064305  0.3742483  0.4785602    0.00000       Uiso       1.00
       O15          O  0.3908763  0.3893132  0.4938523    0.00000       Uiso       1.00
       O16          O  0.3946020  0.3451670  0.4674709    0.00000       Uiso       1.00
       H32          H  0.3740564  0.3399399  0.4735886    0.00000       Uiso       1.00
       C57          C  0.4796768  0.5219223  0.5227236    0.00000       Uiso       1.00
       C58          C  0.5256077  0.4791627  0.4768994    0.00000       Uiso       1.00
       C59          C  0.4913318  0.5112320  0.5338702    0.00000       Uiso       1.00
       C60          C  0.4812397  0.4776083  0.5212401    0.00000       Uiso       1.00
       H33          H  0.4572861  0.4690323  0.5294474    0.00000       Uiso       1.00
       H34          H  0.4894242  0.4692195  0.5286599    0.00000       Uiso       1.00
       C61          C  0.4906284  0.5118223  0.4890870    0.00000       Uiso       1.00
       C62          C  0.5241221  0.5235243  0.4784336    0.00000       Uiso       1.00
       H35          H  0.5315291  0.5475225  0.4866266    0.00000       Uiso       1.00
       H36          H  0.5323852  0.5163635  0.4544871    0.00000       Uiso       1.00
       C63          C  0.5367038  0.5126364  0.4885794    0.00000       Uiso       1.00
       H37          H  0.5341361  0.4709416  0.4840924    0.00000       Uiso       1.00
       C64          C  0.5248563  0.5227975  0.5220898    0.00000       Uiso       1.00
       H38          H  0.5329541  0.5153836  0.5305126    0.00000       Uiso       1.00
       H39          H  0.5332446  0.5467395  0.5301988    0.00000       Uiso       1.00
       C65          C  0.4804712  0.4783089  0.4775543    0.00000       Uiso       1.00
       H40          H  0.5340394  0.4717693  0.4529009    0.00000       Uiso       1.00
       C66          C  0.4919893  0.4665202  0.4877532    0.00000       Uiso       1.00
       H41          H  0.4879284  0.4699132  0.4536133    0.00000       Uiso       1.00
       H42          H  0.4565252  0.4701784  0.4849660    0.00000       Uiso       1.00
       H43          H  0.4556729  0.5137064  0.5310897    0.00000       Uiso       1.00
       H44          H  0.4868264  0.5458686  0.5312820    0.00000       Uiso       1.00
       C67          C  0.7239013  0.9501495  0.8120380    0.00000       Uiso       1.00
       C68          C  0.7089289  0.9480269  0.7972575    0.00000       Uiso       1.00
       C69          C  0.6793794  0.9437597  0.8098864    0.00000       Uiso       1.00
       C70          C  0.7089211  0.9480333  0.8396807    0.00000       Uiso       1.00
       C71          C  0.6793715  0.9437661  0.8523449    0.00000       Uiso       1.00
       C72          C  0.6639432  0.9425732  0.8382396    0.00000       Uiso       1.00
       H45          H  0.4801040  0.9956008  0.0617923    0.00000       Uiso       1.00
       H46          H  0.7208083  0.9497886  0.8520729    0.00000       Uiso       1.00
       H47          H  0.7208228  0.9497769  0.7747231    0.00000       Uiso       1.00
       C73          C  0.4192859  0.9803404  0.8423209    0.00000       Uiso       1.00
       C74          C  0.4469308  0.9951270  0.8444297    0.00000       Uiso       1.00
       C75          C  0.4595837  0.9825089  0.8486962    0.00000       Uiso       1.00
       C76          C  0.4044918  0.9527023  0.8444503    0.00000       Uiso       1.00
       C77          C  0.4171094  0.9400489  0.8487169    0.00000       Uiso       1.00
       C78          C  0.4454648  0.9541603  0.8498960    0.00000       Uiso       1.00
       H48          H  0.6684902  0.9407365  0.7970185    0.00000       Uiso       1.00
       H49          H  0.4587026  0.7306459  0.7969329    0.00000       Uiso       1.00
       H50          H  0.3819556  0.9403052  0.8427063    0.00000       Uiso       1.00
       H51          H  0.4593340  0.0176580  0.8426688    0.00000       Uiso       1.00
       C79          C  0.4190488  0.9805692  0.1172168    0.00000       Uiso       1.00
       C80          C  0.4042578  0.9529285  0.1022540    0.00000       Uiso       1.00
       C81          C  0.4168816  0.9402700  0.0727107    0.00000       Uiso       1.00
       C82          C  0.4466968  0.9953533  0.1022334    0.00000       Uiso       1.00
       C83          C  0.4593560  0.9827300  0.0726901    0.00000       Uiso       1.00
       C84          C  0.4452402  0.9543789  0.0572713    0.00000       Uiso       1.00
       H52          H  0.4590975  0.0178863  0.1141129    0.00000       Uiso       1.00
       H53          H  0.3817190  0.9405335  0.1141505    0.00000       Uiso       1.00
       C85          C  0.4492774  0.6752443  0.8119838    0.00000       Uiso       1.00
       C86          C  0.4513958  0.6902210  0.8396181    0.00000       Uiso       1.00
       C87          C  0.4556687  0.7197649  0.8522660    0.00000       Uiso       1.00
       C88          C  0.4514037  0.6902146  0.7971950    0.00000       Uiso       1.00
       C89          C  0.4556766  0.7197585  0.8098074    0.00000       Uiso       1.00
       C90          C  0.4568650  0.7351911  0.8381526    0.00000       Uiso       1.00
       H54          H  0.4042306  0.9193087  0.8517454    0.00000       Uiso       1.00
       H55          H  0.4496519  0.6783237  0.7746673    0.00000       Uiso       1.00
       H56          H  0.4496376  0.6783353  0.8520170    0.00000       Uiso       1.00
       C91          C  0.6638401  0.9394637  0.8819156    0.00000       Uiso       1.00
       O17          O  0.6378371  0.9356335  0.8938974    0.00000       Uiso       1.00
       O18          O  0.6788740  0.9398998  0.8947815    0.00000       Uiso       1.00
       H57          H  0.6661018  0.9369158  0.9129351    0.00000       Uiso       1.00
       C92          C  0.4599735  0.7352922  0.8818271    0.00000       Uiso       1.00
       O19          O  0.4638087  0.7612901  0.8937942    0.00000       Uiso       1.00
       O20          O  0.4595349  0.7202602  0.8947001    0.00000       Uiso       1.00
       H58          H  0.4625211  0.7330294  0.9128461    0.00000       Uiso       1.00
       C93          C  0.3985265  0.9107018  0.0571990    0.00000       Uiso       1.00
       O21          O  0.4087218  0.8987250  0.0312022    0.00000       Uiso       1.00
       O22          O  0.3710454  0.8978329  0.0722435    0.00000       Uiso       1.00
       H59          H  0.3626733  0.8796814  0.0594831    0.00000       Uiso       1.00
       C94          C  0.4891566  0.0008597  0.8529902    0.00000       Uiso       1.00
       O23          O  0.5011287  0.9906687  0.8568196    0.00000       Uiso       1.00
       O24          O  0.5020348  0.0283313  0.8525485    0.00000       Uiso       1.00
       H60          H  0.5201880  0.0367016  0.8555278    0.00000       Uiso       1.00
       C95          C  0.6317970  0.9350548  0.8505074    0.00000       Uiso       1.00
       C96          C  0.6175589  0.9444425  0.8803956    0.00000       Uiso       1.00
       C97          C  0.5873556  0.9360610  0.8918451    0.00000       Uiso       1.00
       C98          C  0.6149139  0.9174403  0.8323886    0.00000       Uiso       1.00
       C99          C  0.5848734  0.9095598  0.8437155    0.00000       Uiso       1.00
      C100          C  0.5702401  0.9181914  0.8737090    0.00000       Uiso       1.00
       H61          H  0.5219884  0.9432510  0.8486813    0.00000       Uiso       1.00
       H62          H  0.4995810  0.9637942  0.9663441    0.00000       Uiso       1.00
       H63          H  0.6298153  0.9583337  0.8950171    0.00000       Uiso       1.00
      C101          C  0.4576407  0.9417462  0.8574440    0.00000       Uiso       1.00
      C102          C  0.4875096  0.9479092  0.8480446    0.00000       Uiso       1.00
      C103          C  0.4988430  0.9373716  0.8563645    0.00000       Uiso       1.00
      C104          C  0.4394239  0.9243125  0.8750297    0.00000       Uiso       1.00
      C105          C  0.4506318  0.9133062  0.8828358    0.00000       Uiso       1.00
      C106          C  0.4806034  0.9199282  0.8741922    0.00000       Uiso       1.00
       H64          H  0.5778276  0.9437351  0.9149939    0.00000       Uiso       1.00
       H65          H  0.4554636  0.8214114  0.8491598    0.00000       Uiso       1.00
       H66          H  0.5022011  0.9609349  0.8341868    0.00000       Uiso       1.00
      C107          C  0.4576733  0.9420663  0.0251194    0.00000       Uiso       1.00
      C108          C  0.4513762  0.9121662  0.0109132    0.00000       Uiso       1.00
      C109          C  0.4618460  0.9006890  0.9807117    0.00000       Uiso       1.00
      C110          C  0.4752144  0.9601578  0.0081912    0.00000       Uiso       1.00
      C111          C  0.4861388  0.9488022  0.9781588    0.00000       Uiso       1.00
      C112          C  0.4793560  0.9188010  0.9635580    0.00000       Uiso       1.00
       H67          H  0.5027954  0.8259688  0.8927271    0.00000       Uiso       1.00
       H68          H  0.5730836  0.8961111  0.8287107    0.00000       Uiso       1.00
       H69          H  0.4382869  0.8975539  0.0231914    0.00000       Uiso       1.00
      C113          C  0.4643154  0.7673495  0.8506271    0.00000       Uiso       1.00
      C114          C  0.4817669  0.7841976  0.8681889    0.00000       Uiso       1.00
      C115          C  0.4894586  0.8142229  0.8792737    0.00000       Uiso       1.00
      C116          C  0.4549204  0.7816384  0.8444421    0.00000       Uiso       1.00
      C117          C  0.4631278  0.8118413  0.8550640    0.00000       Uiso       1.00
      C118          C  0.4808432  0.8289114  0.8726099    0.00000       Uiso       1.00
       H70          H  0.4558638  0.8775369  0.9712069    0.00000       Uiso       1.00
       H71          H  0.4355558  0.8999296  0.8962567    0.00000       Uiso       1.00
       H72          H  0.4903389  0.7743688  0.8728483    0.00000       Uiso       1.00
      C119          C  0.6289156  0.9052653  0.7995096    0.00000       Uiso       1.00
       O25          O  0.6137843  0.8898974  0.7840201    0.00000       Uiso       1.00
       O26          O  0.6580093  0.9115046  0.7876009    0.00000       Uiso       1.00
       H73          H  0.6631877  0.9023163  0.7670603    0.00000       Uiso       1.00
      C120          C  0.4353241  0.7642547  0.8257844    0.00000       Uiso       1.00
       O27          O  0.4271485  0.7768540  0.8204225    0.00000       Uiso       1.00
       O28          O  0.4270580  0.7349740  0.8152373    0.00000       Uiso       1.00
       H74          H  0.4149891  0.7275285  0.8041443    0.00000       Uiso       1.00
      C121          C  0.4819904  0.9930466  0.0221240    0.00000       Uiso       1.00
       O29          O  0.4973755  0.0085136  0.0069592    0.00000       Uiso       1.00
       O30          O  0.4709641  0.0049897  0.0511940    0.00000       Uiso       1.00
       H75          H  0.4772000  0.0255319  0.0563293    0.00000       Uiso       1.00
      C122          C  0.4065567  0.9177310  0.8872535    0.00000       Uiso       1.00
       O31          O  0.3909912  0.9024380  0.9025909    0.00000       Uiso       1.00
       O32          O  0.3947423  0.9288270  0.8810902    0.00000       Uiso       1.00
       H76          H  0.3741958  0.9227127  0.8903002    0.00000       Uiso       1.00
      C123          C  0.4797343  0.8735319  0.9175097    0.00000       Uiso       1.00
      C124          C  0.5256976  0.9193588  0.8746132    0.00000       Uiso       1.00
      C125          C  0.4913974  0.8623860  0.8840101    0.00000       Uiso       1.00
      C126          C  0.4813222  0.8750234  0.8731072    0.00000       Uiso       1.00
       H77          H  0.4573690  0.8668204  0.8802876    0.00000       Uiso       1.00
       H78          H  0.4895129  0.8676043  0.8491086    0.00000       Uiso       1.00
      C127          C  0.4906936  0.9071691  0.9300874    0.00000       Uiso       1.00
      C128          C  0.5241869  0.9178165  0.9189351    0.00000       Uiso       1.00
       H79          H  0.5315820  0.9096182  0.9273342    0.00000       Uiso       1.00
       H80          H  0.5324556  0.9417633  0.9274523    0.00000       Uiso       1.00
      C129          C  0.5367770  0.9076713  0.8853116    0.00000       Uiso       1.00
       H81          H  0.5342321  0.9121664  0.8506650    0.00000       Uiso       1.00
      C130          C  0.5249217  0.8741603  0.8738174    0.00000       Uiso       1.00
       H82          H  0.5330251  0.8657380  0.8498777    0.00000       Uiso       1.00
       H83          H  0.5332982  0.8660460  0.8812624    0.00000       Uiso       1.00
      C131          C  0.4805532  0.9187093  0.9182627    0.00000       Uiso       1.00
       H84          H  0.5341350  0.9433577  0.8827810    0.00000       Uiso       1.00
      C132          C  0.4920799  0.9085112  0.8847492    0.00000       Uiso       1.00
       H85          H  0.4880165  0.9426509  0.9263456    0.00000       Uiso       1.00
       H86          H  0.4566073  0.9113018  0.9266766    0.00000       Uiso       1.00
       H87          H  0.4557305  0.8651700  0.9249416    0.00000       Uiso       1.00
       H88          H  0.4868719  0.8649682  0.9257489    0.00000       Uiso       1.00
      C133          C  0.7237651  0.5841100  0.8121591    0.00000       Uiso       1.00
      C134          C  0.7087911  0.5988925  0.8397961    0.00000       Uiso       1.00
      C135          C  0.6792386  0.5862678  0.8524632    0.00000       Uiso       1.00
      C136          C  0.7087833  0.5564694  0.7973873    0.00000       Uiso       1.00
      C137          C  0.6792306  0.5438093  0.8100190    0.00000       Uiso       1.00
      C138          C  0.6638001  0.5579166  0.8383670    0.00000       Uiso       1.00
       H89          H  0.4798974  0.3343755  0.8517806    0.00000       Uiso       1.00
       H90          H  0.7206718  0.5440755  0.7748576    0.00000       Uiso       1.00
       H91          H  0.7206863  0.6214253  0.8521814    0.00000       Uiso       1.00
      C139          C  0.4190760  0.5538561  0.1168366    0.00000       Uiso       1.00
      C140          C  0.4467178  0.5517414  0.1018588    0.00000       Uiso       1.00
      C141          C  0.4593800  0.5474757  0.0723127    0.00000       Uiso       1.00
      C142          C  0.4042946  0.5517335  0.1018652    0.00000       Uiso       1.00
      C143          C  0.4169215  0.5474678  0.0723191    0.00000       Uiso       1.00
      C144          C  0.4452744  0.5462829  0.0568848    0.00000       Uiso       1.00
       H92          H  0.6683490  0.5991375  0.8732018    0.00000       Uiso       1.00
       H93          H  0.4586396  0.5992861  0.8730473    0.00000       Uiso       1.00
       H94          H  0.3817610  0.5534824  0.1137569    0.00000       Uiso       1.00
       H95          H  0.4591108  0.5534967  0.1137453    0.00000       Uiso       1.00
      C145          C  0.4188391  0.2789607  0.8424066    0.00000       Uiso       1.00
      C146          C  0.4040609  0.2939303  0.8445217    0.00000       Uiso       1.00
      C147          C  0.4166941  0.3234745  0.8487741    0.00000       Uiso       1.00
      C148          C  0.4464840  0.2939382  0.8445154    0.00000       Uiso       1.00
      C149          C  0.4591526  0.3234824  0.8487677    0.00000       Uiso       1.00
      C150          C  0.4450501  0.3389081  0.8499528    0.00000       Uiso       1.00
       H96          H  0.4588746  0.2820531  0.8427659    0.00000       Uiso       1.00
       H97          H  0.3815248  0.2820387  0.8427775    0.00000       Uiso       1.00
      C151          C  0.4492435  0.5842466  0.8120143    0.00000       Uiso       1.00
      C152          C  0.4513540  0.5566092  0.7972399    0.00000       Uiso       1.00
      C153          C  0.4556112  0.5439553  0.8098665    0.00000       Uiso       1.00
      C154          C  0.4513618  0.5990323  0.8396488    0.00000       Uiso       1.00
      C155          C  0.4556190  0.5864139  0.8523108    0.00000       Uiso       1.00
      C156          C  0.4567992  0.5580658  0.8382120    0.00000       Uiso       1.00
       H98          H  0.4040519  0.5444446  0.0614316    0.00000       Uiso       1.00
       H99          H  0.4496164  0.6215625  0.8520361    0.00000       Uiso       1.00
      H100          H  0.4496020  0.5442127  0.7747123    0.00000       Uiso       1.00
      C157          C  0.6636986  0.5142412  0.7916842    0.00000       Uiso       1.00
       O33          O  0.6376929  0.5022631  0.8018871    0.00000       Uiso       1.00
       O34          O  0.6787351  0.5013734  0.7642131    0.00000       Uiso       1.00
      H101          H  0.6659622  0.4832218  0.7558533    0.00000       Uiso       1.00
      C158          C  0.4599081  0.5143909  0.7915287    0.00000       Uiso       1.00
       O35          O  0.4637295  0.5024184  0.8017272    0.00000       Uiso       1.00
       O36          O  0.4594778  0.5015207  0.7640597    0.00000       Uiso       1.00
      H102          H  0.4624574  0.4833720  0.7556976    0.00000       Uiso       1.00
      C159          C  0.3983520  0.3389938  0.8530762    0.00000       Uiso       1.00
       O37          O  0.4085560  0.3649917  0.8568937    0.00000       Uiso       1.00
       O38          O  0.3708730  0.3239548  0.8526548    0.00000       Uiso       1.00
      H103          H  0.3625095  0.3367196  0.8556365    0.00000       Uiso       1.00
      C160          C  0.4889483  0.5431750  0.0567853    0.00000       Uiso       1.00
       O39          O  0.5009282  0.5393461  0.0307855    0.00000       Uiso       1.00
       O40          O  0.5018136  0.5436102  0.0718193    0.00000       Uiso       1.00
      H104          H  0.5199655  0.5406272  0.0590498    0.00000       Uiso       1.00
      C161          C  0.6316521  0.5456538  0.8507411    0.00000       Uiso       1.00
      C162          C  0.6174061  0.5157655  0.8444875    0.00000       Uiso       1.00
      C163          C  0.5872019  0.5043210  0.8548729    0.00000       Uiso       1.00
      C164          C  0.6147758  0.5637779  0.8681335    0.00000       Uiso       1.00
      C165          C  0.5847341  0.5524557  0.8789797    0.00000       Uiso       1.00
      C166          C  0.5700932  0.5224623  0.8722598    0.00000       Uiso       1.00
      H105          H  0.5218185  0.5474908  0.9706270    0.00000       Uiso       1.00
      H106          H  0.4993955  0.4298268  0.8959295    0.00000       Uiso       1.00
      H107          H  0.6296570  0.5011399  0.8314974    0.00000       Uiso       1.00
      C167          C  0.4574594  0.5387358  0.0247387    0.00000       Uiso       1.00
      C168          C  0.4873305  0.5481307  0.0104187    0.00000       Uiso       1.00
      C169          C  0.4986722  0.5398114  0.9802198    0.00000       Uiso       1.00
      C170          C  0.4392489  0.5211554  0.0079416    0.00000       Uiso       1.00
      C171          C  0.4504653  0.5133501  0.9779134    0.00000       Uiso       1.00
      C172          C  0.4804389  0.5219890  0.9631940    0.00000       Uiso       1.00
      H108          H  0.5776679  0.4811719  0.8489321    0.00000       Uiso       1.00
      H109          H  0.4553494  0.5470426  0.9148433    0.00000       Uiso       1.00
      H110          H  0.5020174  0.5619843  0.0226060    0.00000       Uiso       1.00
      C173          C  0.4574923  0.3710609  0.8573506    0.00000       Uiso       1.00
      C174          C  0.4512108  0.3852733  0.8479512    0.00000       Uiso       1.00
      C175          C  0.4616886  0.4154752  0.8561983    0.00000       Uiso       1.00
      C176          C  0.4750266  0.3879837  0.8748240    0.00000       Uiso       1.00
      C177          C  0.4859591  0.4180164  0.8825687    0.00000       Uiso       1.00
      C178          C  0.4791918  0.4326236  0.8739489    0.00000       Uiso       1.00
      H111          H  0.5026874  0.5034691  0.8284795    0.00000       Uiso       1.00
      H112          H  0.5729496  0.5674645  0.8923289    0.00000       Uiso       1.00
      H113          H  0.4381272  0.3729993  0.8341537    0.00000       Uiso       1.00
      C179          C  0.4642329  0.5455844  0.8504480    0.00000       Uiso       1.00
      C180          C  0.4816782  0.5280174  0.8322774    0.00000       Uiso       1.00
      C181          C  0.4893547  0.5169263  0.8435281    0.00000       Uiso       1.00
      C182          C  0.4548282  0.5517678  0.8803242    0.00000       Uiso       1.00
      C183          C  0.4630204  0.5411393  0.8916993    0.00000       Uiso       1.00
      C184          C  0.4807294  0.5235883  0.8735027    0.00000       Uiso       1.00
      H114          H  0.4557183  0.4249850  0.8485317    0.00000       Uiso       1.00
      H115          H  0.4353941  0.4999334  0.9661967    0.00000       Uiso       1.00
      H116          H  0.4902574  0.5233590  0.8092113    0.00000       Uiso       1.00
      C185          C  0.6287869  0.5966575  0.8748267    0.00000       Uiso       1.00
       O41          O  0.6136613  0.6121517  0.8900842    0.00000       Uiso       1.00
       O42          O  0.6578825  0.6085618  0.8638681    0.00000       Uiso       1.00
      H117          H  0.6630670  0.6291034  0.8700377    0.00000       Uiso       1.00
      C186          C  0.4352380  0.5704309  0.9012006    0.00000       Uiso       1.00
       O43          O  0.4270539  0.5757915  0.9273437    0.00000       Uiso       1.00
       O44          O  0.4269868  0.5809845  0.8907317    0.00000       Uiso       1.00
      H118          H  0.4149198  0.5920802  0.9064526    0.00000       Uiso       1.00
      C187          C  0.4817855  0.3740440  0.8870069    0.00000       Uiso       1.00
       O45          O  0.4971650  0.3892042  0.9022485    0.00000       Uiso       1.00
       O46          O  0.4707506  0.3449731  0.8809134    0.00000       Uiso       1.00
      H119          H  0.4769762  0.3398332  0.8900852    0.00000       Uiso       1.00
      C188          C  0.4063793  0.5089366  0.0220183    0.00000       Uiso       1.00
       O47          O  0.3908195  0.4936038  0.0069581    0.00000       Uiso       1.00
       O48          O  0.3945566  0.5150991  0.0510998    0.00000       Uiso       1.00
      H120          H  0.3740096  0.5058927  0.0563310    0.00000       Uiso       1.00
      C189          C  0.4795954  0.4786802  0.8743411    0.00000       Uiso       1.00
      C190          C  0.5255417  0.5215631  0.9170875    0.00000       Uiso       1.00
      C191          C  0.4912670  0.5121806  0.8850239    0.00000       Uiso       1.00
      C192          C  0.4811829  0.5230823  0.9186467    0.00000       Uiso       1.00
      H121          H  0.4572297  0.5159062  0.9272267    0.00000       Uiso       1.00
      H122          H  0.4893792  0.5470814  0.9270300    0.00000       Uiso       1.00
      C193          C  0.4905380  0.4660950  0.8844422    0.00000       Uiso       1.00
      C194          C  0.5240316  0.4772415  0.8727342    0.00000       Uiso       1.00
      H123          H  0.5314327  0.4688432  0.8487368    0.00000       Uiso       1.00
      H124          H  0.5322886  0.4687191  0.8798957    0.00000       Uiso       1.00
      C195          C  0.5366298  0.5108655  0.8836145    0.00000       Uiso       1.00
      H125          H  0.5340819  0.5455115  0.9253031    0.00000       Uiso       1.00
      C196          C  0.5247908  0.5223673  0.8734527    0.00000       Uiso       1.00
      H126          H  0.5329006  0.5463077  0.8808612    0.00000       Uiso       1.00
      H127          H  0.5331735  0.5149228  0.8495111    0.00000       Uiso       1.00
      C197          C  0.4803893  0.4779188  0.9179546    0.00000       Uiso       1.00
      H128          H  0.5339674  0.5133898  0.9244815    0.00000       Uiso       1.00
      C198          C  0.4919239  0.5114329  0.9297358    0.00000       Uiso       1.00
      H129          H  0.4878406  0.4698305  0.9263509    0.00000       Uiso       1.00
      H130          H  0.4564431  0.4695090  0.9260894    0.00000       Uiso       1.00
      H131          H  0.4555919  0.4712527  0.8825611    0.00000       Uiso       1.00
      H132          H  0.4867392  0.4704418  0.8503955    0.00000       Uiso       1.00
      C199          C  0.8149811  0.5839291  0.7205746    0.00000       Uiso       1.00
      C200          C  0.8001903  0.5562884  0.7056117    0.00000       Uiso       1.00
      C201          C  0.8128141  0.5436299  0.6760685    0.00000       Uiso       1.00
      C202          C  0.8426293  0.5987132  0.7055911    0.00000       Uiso       1.00
      C203          C  0.8552884  0.5860899  0.6760479    0.00000       Uiso       1.00
      C204          C  0.8411726  0.5577388  0.6606291    0.00000       Uiso       1.00
      H133          H  0.0647447  0.5444438  0.4767829    0.00000       Uiso       1.00
      H134          H  0.8550300  0.6212459  0.7174707    0.00000       Uiso       1.00
      H135          H  0.7776514  0.5438933  0.7175083    0.00000       Uiso       1.00
      C205          C  0.8451718  0.2793135  0.4160514    0.00000       Uiso       1.00
      C206          C  0.8472902  0.2942902  0.4436858    0.00000       Uiso       1.00
      C207          C  0.8515630  0.3238340  0.4563336    0.00000       Uiso       1.00
      C208          C  0.8472980  0.2942838  0.4012627    0.00000       Uiso       1.00
      C209          C  0.8515709  0.3238277  0.4138751    0.00000       Uiso       1.00
      C210          C  0.8527595  0.3392603  0.4422202    0.00000       Uiso       1.00
      H136          H  0.7999378  0.5228876  0.6651870    0.00000       Uiso       1.00
      H137          H  0.7997891  0.5230421  0.4554775    0.00000       Uiso       1.00
      H138          H  0.8455463  0.2823929  0.3787349    0.00000       Uiso       1.00
      H139          H  0.8455319  0.2824045  0.4560846    0.00000       Uiso       1.00
      C211          C  0.1201698  0.5538454  0.4157321    0.00000       Uiso       1.00
      C212          C  0.1051975  0.5517228  0.4009516    0.00000       Uiso       1.00
      C213          C  0.0756479  0.5474556  0.4135805    0.00000       Uiso       1.00
      C214          C  0.1051896  0.5517291  0.4433748    0.00000       Uiso       1.00
      C215          C  0.0756400  0.5474619  0.4560390    0.00000       Uiso       1.00
      C216          C  0.0602118  0.5462691  0.4419337    0.00000       Uiso       1.00
      H140          H  0.1170769  0.5534844  0.4557670    0.00000       Uiso       1.00
      H141          H  0.1170913  0.5534729  0.3784172    0.00000       Uiso       1.00
      C217          C  0.8148445  0.5840738  0.4460529    0.00000       Uiso       1.00
      C218          C  0.8424894  0.5988604  0.4481618    0.00000       Uiso       1.00
      C219          C  0.8551422  0.5862423  0.4524283    0.00000       Uiso       1.00
      C220          C  0.8000504  0.5564357  0.4481824    0.00000       Uiso       1.00
      C221          C  0.8126679  0.5437822  0.4524490    0.00000       Uiso       1.00
      C222          C  0.8410234  0.5578936  0.4536280    0.00000       Uiso       1.00
      H142          H  0.8545970  0.3347151  0.4010005    0.00000       Uiso       1.00
      H143          H  0.7775142  0.5440386  0.4464384    0.00000       Uiso       1.00
      H144          H  0.8548927  0.6213911  0.4464008    0.00000       Uiso       1.00
      C223          C  0.8848650  0.6044375  0.6605129    0.00000       Uiso       1.00
       O49          O  0.8968426  0.5942423  0.6345152    0.00000       Uiso       1.00
       O50          O  0.8977408  0.6319112  0.6755380    0.00000       Uiso       1.00
      H145          H  0.9158970  0.6402791  0.6627647    0.00000       Uiso       1.00
      C224          C  0.8847153  0.6045927  0.4567223    0.00000       Uiso       1.00
       O51          O  0.8966872  0.5944020  0.4605517    0.00000       Uiso       1.00
       O52          O  0.8975935  0.6320645  0.4562806    0.00000       Uiso       1.00
      H146          H  0.9157467  0.6404347  0.4592599    0.00000       Uiso       1.00
      C225          C  0.0601253  0.5431461  0.3952372    0.00000       Uiso       1.00
       O53          O  0.0341227  0.5393155  0.4054374    0.00000       Uiso       1.00
       O54          O  0.0751667  0.5435752  0.3677614    0.00000       Uiso       1.00
      H147          H  0.0623993  0.5405872  0.3593965    0.00000       Uiso       1.00
      C226          C  0.8558678  0.3393614  0.4858948    0.00000       Uiso       1.00
       O55          O  0.8597031  0.3653593  0.4978619    0.00000       Uiso       1.00
       O56          O  0.8554294  0.3243294  0.4987678    0.00000       Uiso       1.00
      H148          H  0.8584155  0.3370985  0.5169137    0.00000       Uiso       1.00
      C227          C  0.8534346  0.5453729  0.6284901    0.00000       Uiso       1.00
      C228          C  0.8833287  0.5516412  0.6142477    0.00000       Uiso       1.00
      C229          C  0.8947726  0.5412634  0.5840513    0.00000       Uiso       1.00
      C230          C  0.8353039  0.5279737  0.6116189    0.00000       Uiso       1.00
      C231          C  0.8466253  0.5171350  0.5815854    0.00000       Uiso       1.00
      C232          C  0.8766247  0.5238696  0.5669476    0.00000       Uiso       1.00
      H149          H  0.8515705  0.4255041  0.5187188    0.00000       Uiso       1.00
      H150          H  0.9692688  0.5002517  0.4962828    0.00000       Uiso       1.00
      H151          H  0.8979594  0.5646371  0.6264949    0.00000       Uiso       1.00
      C233          C  0.8603148  0.3714055  0.4543901    0.00000       Uiso       1.00
      C234          C  0.8509218  0.3857185  0.4842516    0.00000       Uiso       1.00
      C235          C  0.8592491  0.4159167  0.4955791    0.00000       Uiso       1.00
      C236          C  0.8779016  0.3882093  0.4361748    0.00000       Uiso       1.00
      C237          C  0.8857148  0.4182365  0.4473770    0.00000       Uiso       1.00
      C238          C  0.8770779  0.4329493  0.4773409    0.00000       Uiso       1.00
      H152          H  0.9179265  0.5472153  0.5745194    0.00000       Uiso       1.00
      H153          H  0.8520312  0.4812796  0.4522206    0.00000       Uiso       1.00
      H154          H  0.8370633  0.3735258  0.4989418    0.00000       Uiso       1.00
      C239          C  0.0280525  0.5388556  0.4543726    0.00000       Uiso       1.00
      C240          C  0.0138400  0.5482461  0.4480831    0.00000       Uiso       1.00
      C241          C  0.9836314  0.5399845  0.4585585    0.00000       Uiso       1.00
      C242          C  0.0111232  0.5213759  0.4719123    0.00000       Uiso       1.00
      C243          C  0.9810840  0.5136167  0.4828422    0.00000       Uiso       1.00
      C244          C  0.9664765  0.5222276  0.4760671    0.00000       Uiso       1.00
      H155          H  0.8956304  0.5676532  0.4995233    0.00000       Uiso       1.00
      H156          H  0.8316113  0.5037800  0.5698045    0.00000       Uiso       1.00
      H157          H  0.0261189  0.5620480  0.4349950    0.00000       Uiso       1.00
      C245          C  0.8535039  0.5456661  0.4610710    0.00000       Uiso       1.00
      C246          C  0.8710776  0.5638431  0.4785107    0.00000       Uiso       1.00
      C247          C  0.8821679  0.5525998  0.4861954    0.00000       Uiso       1.00
      C248          C  0.8473130  0.5157911  0.4516804    0.00000       Uiso       1.00
      C249          C  0.8579406  0.5044233  0.4598809    0.00000       Uiso       1.00
      C250          C  0.8754982  0.5226262  0.4775844    0.00000       Uiso       1.00
      H158          H  0.9741218  0.5476450  0.4525820    0.00000       Uiso       1.00
      H159          H  0.8991361  0.4299585  0.4323025    0.00000       Uiso       1.00
      H160          H  0.8757418  0.5869082  0.4870788    0.00000       Uiso       1.00
      C251          C  0.8024178  0.5212643  0.6256262    0.00000       Uiso       1.00
       O57          O  0.7869180  0.5060011  0.6105052    0.00000       Uiso       1.00
       O58          O  0.7905142  0.5322151  0.6547134    0.00000       Uiso       1.00
      H161          H  0.7699682  0.5260357  0.6598966    0.00000       Uiso       1.00
      C252          C  0.8286424  0.4949080  0.4320970    0.00000       Uiso       1.00
       O59          O  0.8232752  0.4687660  0.4239253    0.00000       Uiso       1.00
       O60          O  0.8180896  0.5053699  0.4238379    0.00000       Uiso       1.00
      H162          H  0.8069887  0.4896456  0.4117767    0.00000       Uiso       1.00
      C253          C  0.0250624  0.5092021  0.4786806    0.00000       Uiso       1.00
       O61          O  0.0098965  0.4939548  0.4940647    0.00000       Uiso       1.00
       O62          O  0.0541390  0.5153098  0.4676490    0.00000       Uiso       1.00
      H163          H  0.0592776  0.5061421  0.4738806    0.00000       Uiso       1.00
      C254          C  0.8901191  0.3741410  0.4033153    0.00000       Uiso       1.00
       O63          O  0.9054575  0.3892070  0.3877510    0.00000       Uiso       1.00
       O64          O  0.8839492  0.3450607  0.3915063    0.00000       Uiso       1.00
      H164          H  0.8931558  0.3398351  0.3709641    0.00000       Uiso       1.00
      C255          C  0.9204129  0.5218115  0.4764607    0.00000       Uiso       1.00
      C256          C  0.8775141  0.4790491  0.5224198    0.00000       Uiso       1.00
      C257          C  0.8869051  0.5111127  0.4881304    0.00000       Uiso       1.00
      C258          C  0.8759943  0.4774893  0.4780614    0.00000       Uiso       1.00
      H165          H  0.8831695  0.4689143  0.4541143    0.00000       Uiso       1.00
      H166          H  0.8519898  0.4690947  0.4862568    0.00000       Uiso       1.00
      C259          C  0.9329976  0.5117183  0.4874114    0.00000       Uiso       1.00
      C260          C  0.9218522  0.5234187  0.5208964    0.00000       Uiso       1.00
      H167          H  0.9302571  0.5474170  0.5282868    0.00000       Uiso       1.00
      H168          H  0.9303743  0.5162628  0.5291589    0.00000       Uiso       1.00
      C261          C  0.8882207  0.5125226  0.5334927    0.00000       Uiso       1.00
      H169          H  0.8535602  0.4708221  0.5309589    0.00000       Uiso       1.00
      C262          C  0.8767195  0.5226769  0.5216460    0.00000       Uiso       1.00
      H170          H  0.8527738  0.5152571  0.5297543    0.00000       Uiso       1.00
      H171          H  0.8841704  0.5466188  0.5300178    0.00000       Uiso       1.00
      C263          C  0.9211648  0.4782048  0.4772775    0.00000       Uiso       1.00
      H172          H  0.8856869  0.4716604  0.5308511    0.00000       Uiso       1.00
      C264          C  0.8876429  0.4664080  0.4888108    0.00000       Uiso       1.00
      H173          H  0.9292523  0.4698140  0.4847350    0.00000       Uiso       1.00
      H174          H  0.9295740  0.4700757  0.4533374    0.00000       Uiso       1.00
      H175          H  0.9278398  0.5135965  0.4524631    0.00000       Uiso       1.00
      H176          H  0.9286579  0.5457577  0.4835938    0.00000       Uiso       1.00
      C265          C  0.8151156  0.9499669  0.7204517    0.00000       Uiso       1.00
      C266          C  0.8427573  0.9478521  0.7054738    0.00000       Uiso       1.00
      C267          C  0.8554196  0.9435864  0.6759278    0.00000       Uiso       1.00
      C268          C  0.8003342  0.9478442  0.7054802    0.00000       Uiso       1.00
      C269          C  0.8129611  0.9435785  0.6759342    0.00000       Uiso       1.00
      C270          C  0.8413140  0.9423936  0.6604999    0.00000       Uiso       1.00
      H177          H  0.8546787  0.9953969  0.4766630    0.00000       Uiso       1.00
      H178          H  0.7778006  0.9495931  0.7173720    0.00000       Uiso       1.00
      H179          H  0.8551503  0.9496074  0.7173604    0.00000       Uiso       1.00
      C271          C  0.1198049  0.9802207  0.4157748    0.00000       Uiso       1.00
      C272          C  0.1048309  0.9950033  0.4434119    0.00000       Uiso       1.00
      C273          C  0.0752783  0.9823786  0.4560789    0.00000       Uiso       1.00
      C274          C  0.1048230  0.9525802  0.4010030    0.00000       Uiso       1.00
      C275          C  0.0752704  0.9399201  0.4136347    0.00000       Uiso       1.00
      C276          C  0.0598399  0.9540274  0.4419827    0.00000       Uiso       1.00
      H180          H  0.8761618  0.9405695  0.6650353    0.00000       Uiso       1.00
      H181          H  0.8759367  0.7304863  0.4553964    0.00000       Uiso       1.00
      H182          H  0.1167115  0.9401862  0.3784734    0.00000       Uiso       1.00
      H183          H  0.1167259  0.0175363  0.4557971    0.00000       Uiso       1.00
      C277          C  0.8452826  0.9803573  0.4156300    0.00000       Uiso       1.00
      C278          C  0.8473931  0.9527199  0.4008556    0.00000       Uiso       1.00
      C279          C  0.8516503  0.9400661  0.4134822    0.00000       Uiso       1.00
      C280          C  0.8474010  0.9951431  0.4432645    0.00000       Uiso       1.00
      C281          C  0.8516582  0.9825246  0.4559265    0.00000       Uiso       1.00
      C282          C  0.8528383  0.9541765  0.4418278    0.00000       Uiso       1.00
      H184          H  0.8456555  0.0176736  0.4556518    0.00000       Uiso       1.00
      H185          H  0.8456411  0.9403235  0.3783280    0.00000       Uiso       1.00
      C283          C  0.8148783  0.6750715  0.4460224    0.00000       Uiso       1.00
      C284          C  0.8001001  0.6900412  0.4481375    0.00000       Uiso       1.00
      C285          C  0.8127334  0.7195854  0.4523899    0.00000       Uiso       1.00
      C286          C  0.8425233  0.6900491  0.4481311    0.00000       Uiso       1.00
      C287          C  0.8551919  0.7195933  0.4523836    0.00000       Uiso       1.00
      C288          C  0.8410893  0.7350190  0.4535685    0.00000       Uiso       1.00
      H186          H  0.0643746  0.9191779  0.4007728    0.00000       Uiso       1.00
      H187          H  0.8549138  0.6781639  0.4463818    0.00000       Uiso       1.00
      H188          H  0.7775640  0.6781496  0.4463934    0.00000       Uiso       1.00
      C289          C  0.7946153  0.9392689  0.6604140    0.00000       Uiso       1.00
       O65          O  0.8048137  0.9354397  0.6344144    0.00000       Uiso       1.00
       O66          O  0.7671395  0.9396974  0.6754542    0.00000       Uiso       1.00
      H189          H  0.7587730  0.9367096  0.6626887    0.00000       Uiso       1.00
      C290          C  0.7943913  0.7351047  0.4566920    0.00000       Uiso       1.00
       O67          O  0.8045952  0.7611026  0.4605096    0.00000       Uiso       1.00
       O68          O  0.7669122  0.7200657  0.4562706    0.00000       Uiso       1.00
      H190          H  0.7585487  0.7328305  0.4592524    0.00000       Uiso       1.00
      C291          C  0.8559471  0.9105016  0.3951445    0.00000       Uiso       1.00
       O69          O  0.8597686  0.8985292  0.4053429    0.00000       Uiso       1.00
       O70          O  0.8555170  0.8976315  0.3676754    0.00000       Uiso       1.00
      H191          H  0.8584965  0.8794827  0.3593133    0.00000       Uiso       1.00
      C292          C  0.0597551  0.0007248  0.4856420    0.00000       Uiso       1.00
       O71          O  0.0337498  0.9905279  0.4976259    0.00000       Uiso       1.00
       O72          O  0.0747990  0.0281988  0.4984985    0.00000       Uiso       1.00
      H192          H  0.0620310  0.0365656  0.5166483    0.00000       Uiso       1.00
      C293          C  0.8536823  0.9348767  0.6283594    0.00000       Uiso       1.00
      C294          C  0.8474226  0.9442595  0.6141212    0.00000       Uiso       1.00
      C295          C  0.8578021  0.9358792  0.5839243    0.00000       Uiso       1.00
      C296          C  0.8710749  0.9172689  0.6114828    0.00000       Uiso       1.00
      C297          C  0.8819154  0.9093899  0.5814484    0.00000       Uiso       1.00
      C298          C  0.8751891  0.9180162  0.5668155    0.00000       Uiso       1.00
      H193          H  0.9735758  0.9430996  0.5185267    0.00000       Uiso       1.00
      H194          H  0.8988472  0.9636121  0.4961378    0.00000       Uiso       1.00
      H195          H  0.8344323  0.9581455  0.6263723    0.00000       Uiso       1.00
      C299          C  0.0276861  0.9416058  0.4541736    0.00000       Uiso       1.00
      C300          C  0.0133706  0.9477664  0.4840385    0.00000       Uiso       1.00
      C301          C  0.9831646  0.9372216  0.4953854    0.00000       Uiso       1.00
      C302          C  0.0108774  0.9241670  0.4359749    0.00000       Uiso       1.00
      C303          C  0.9808422  0.9131536  0.4471965    0.00000       Uiso       1.00
      C304          C  0.9661269  0.9197731  0.4771641    0.00000       Uiso       1.00
      H196          H  0.8518568  0.9435490  0.5743961    0.00000       Uiso       1.00
      H197          H  0.9177490  0.8212519  0.4520966    0.00000       Uiso       1.00
      H198          H  0.0255669  0.9607960  0.4987164    0.00000       Uiso       1.00
      C305          C  0.8602419  0.9418696  0.4542624    0.00000       Uiso       1.00
      C306          C  0.8508365  0.9119702  0.4479854    0.00000       Uiso       1.00
      C307          C  0.8590891  0.9004986  0.4584560    0.00000       Uiso       1.00
      C308          C  0.8777272  0.9599663  0.4717850    0.00000       Uiso       1.00
      C309          C  0.8854773  0.9486162  0.4827104    0.00000       Uiso       1.00
      C310          C  0.8768515  0.9186159  0.4759474    0.00000       Uiso       1.00
      H199          H  0.8313705  0.8257850  0.4994462    0.00000       Uiso       1.00
      H200          H  0.8952650  0.8959462  0.5696633    0.00000       Uiso       1.00
      H201          H  0.8370298  0.8973540  0.4349107    0.00000       Uiso       1.00
      C311          C  0.8533327  0.7671775  0.4609966    0.00000       Uiso       1.00
      C312          C  0.8351619  0.7840190  0.4784421    0.00000       Uiso       1.00
      C313          C  0.8464198  0.8140444  0.4861130    0.00000       Uiso       1.00
      C314          C  0.8832167  0.7814733  0.4515858    0.00000       Uiso       1.00
      C315          C  0.8945991  0.8116763  0.4597721    0.00000       Uiso       1.00
      C316          C  0.8764024  0.8287398  0.4774814    0.00000       Uiso       1.00
      H202          H  0.8514172  0.8773467  0.4524897    0.00000       Uiso       1.00
      H203          H  0.9691165  0.8997733  0.4321343    0.00000       Uiso       1.00
      H204          H  0.8120902  0.7741848  0.4870254    0.00000       Uiso       1.00
      C317          C  0.8777741  0.9050996  0.6254860    0.00000       Uiso       1.00
       O73          O  0.8930316  0.8897374  0.6103604    0.00000       Uiso       1.00
       O74          O  0.8668208  0.9113376  0.6545746    0.00000       Uiso       1.00
      H205          H  0.8729937  0.9021534  0.6597549    0.00000       Uiso       1.00
      C318          C  0.9040936  0.7640969  0.4319952    0.00000       Uiso       1.00
       O75          O  0.9302436  0.7767021  0.4238058    0.00000       Uiso       1.00
       O76          O  0.8936177  0.7348161  0.4237495    0.00000       Uiso       1.00
      H206          H  0.9093399  0.7273757  0.4116815    0.00000       Uiso       1.00
      C319          C  0.8899174  0.9928551  0.4785385    0.00000       Uiso       1.00
       O77          O  0.9051692  0.0083267  0.4939076    0.00000       Uiso       1.00
       O78          O  0.8838189  0.0047931  0.4675102    0.00000       Uiso       1.00
      H207          H  0.8929964  0.0253360  0.4737311    0.00000       Uiso       1.00
      C320          C  0.0249487  0.9175875  0.4031125    0.00000       Uiso       1.00
       O79          O  0.0098781  0.9022899  0.3875630    0.00000       Uiso       1.00
       O80          O  0.0540368  0.9286903  0.3912848    0.00000       Uiso       1.00
      H208          H  0.0592634  0.9225763  0.3707435    0.00000       Uiso       1.00
      C321          C  0.8772423  0.8733537  0.4763491    0.00000       Uiso       1.00
      C322          C  0.9200186  0.9191934  0.5222656    0.00000       Uiso       1.00
      C323          C  0.8879319  0.8622144  0.4880123    0.00000       Uiso       1.00
      C324          C  0.9215634  0.8748601  0.4779211    0.00000       Uiso       1.00
      H209          H  0.9301387  0.8666585  0.4539737    0.00000       Uiso       1.00
      H210          H  0.9299517  0.8674458  0.4861113    0.00000       Uiso       1.00
      C325          C  0.8873513  0.9069905  0.4872855    0.00000       Uiso       1.00
      C326          C  0.8756499  0.9176362  0.5207710    0.00000       Uiso       1.00
      H211          H  0.8516463  0.9094319  0.5281770    0.00000       Uiso       1.00
      H212          H  0.8828171  0.9415828  0.5290232    0.00000       Uiso       1.00
      C327          C  0.8865372  0.9074976  0.5333604    0.00000       Uiso       1.00
      H213          H  0.9282393  0.9120058  0.5307995    0.00000       Uiso       1.00
      C328          C  0.8763672  0.8739870  0.5215281    0.00000       Uiso       1.00
      H214          H  0.8837803  0.8655694  0.5296320    0.00000       Uiso       1.00
      H215          H  0.8524198  0.8658667  0.5299153    0.00000       Uiso       1.00
      C329          C  0.9208724  0.9185390  0.4771297    0.00000       Uiso       1.00
      H216          H  0.9274184  0.9431921  0.5306865    0.00000       Uiso       1.00
      C330          C  0.9326606  0.9083478  0.4886556    0.00000       Uiso       1.00
      H217          H  0.9292746  0.9424807  0.4845762    0.00000       Uiso       1.00
      H218          H  0.9290025  0.9111327  0.4531894    0.00000       Uiso       1.00
      H219          H  0.8854577  0.8649932  0.4523515    0.00000       Uiso       1.00
      H220          H  0.8532906  0.8647841  0.4834980    0.00000       Uiso       1.00
      C331          C  0.8149965  0.6756859  0.8123041    0.00000       Uiso       1.00
      C332          C  0.8426446  0.6906610  0.7975116    0.00000       Uiso       1.00
      C333          C  0.8553116  0.7202064  0.8101228    0.00000       Uiso       1.00
      C334          C  0.8002136  0.6906594  0.8399411    0.00000       Uiso       1.00
      C335          C  0.8128452  0.7202048  0.8525876    0.00000       Uiso       1.00
      C336          C  0.8412040  0.7356362  0.8384702    0.00000       Uiso       1.00
      H221          H  0.8545415  0.9194617  0.0619494    0.00000       Uiso       1.00
      H222          H  0.7776749  0.6787699  0.8523430    0.00000       Uiso       1.00
      H223          H  0.8550389  0.6787727  0.7749817    0.00000       Uiso       1.00
      C337          C  0.1197257  0.9803224  0.8424035    0.00000       Uiso       1.00
      C338          C  0.1047407  0.9526844  0.8445330    0.00000       Uiso       1.00
      C339          C  0.0751896  0.9400231  0.8488060    0.00000       Uiso       1.00
      C340          C  0.1047565  0.9951012  0.8445187    0.00000       Uiso       1.00
      C341          C  0.0752054  0.9824752  0.8487917    0.00000       Uiso       1.00
      C342          C  0.0597642  0.9541263  0.8499916    0.00000       Uiso       1.00
      H224          H  0.8760594  0.7310971  0.7972455    0.00000       Uiso       1.00
      H225          H  0.8759515  0.9407752  0.7969874    0.00000       Uiso       1.00
      H226          H  0.1166541  0.0176321  0.8427579    0.00000       Uiso       1.00
      H227          H  0.1166254  0.9402936  0.8427839    0.00000       Uiso       1.00
      C343          C  0.8451521  0.9804985  0.1173406    0.00000       Uiso       1.00
      C344          C  0.8472784  0.9952778  0.1023610    0.00000       Uiso       1.00
      C345          C  0.8515434  0.9826531  0.0728190    0.00000       Uiso       1.00
      C346          C  0.8472626  0.9528611  0.1023753    0.00000       Uiso       1.00
      C347          C  0.8515276  0.9402009  0.0728333    0.00000       Uiso       1.00
      C348          C  0.8527238  0.9543048  0.0573979    0.00000       Uiso       1.00
      H228          H  0.8455042  0.9404697  0.1142687    0.00000       Uiso       1.00
      H229          H  0.8455330  0.0178082  0.1142427    0.00000       Uiso       1.00
      C349          C  0.8149127  0.9501665  0.8120243    0.00000       Uiso       1.00
      C350          C  0.8001234  0.9480502  0.8396670    0.00000       Uiso       1.00
      C351          C  0.8127425  0.9437908  0.8523248    0.00000       Uiso       1.00
      C352          C  0.8425545  0.9480517  0.7972375    0.00000       Uiso       1.00
      C353          C  0.8552089  0.9437923  0.8098600    0.00000       Uiso       1.00
      C354          C  0.8410951  0.9426062  0.8382130    0.00000       Uiso       1.00
      H230          H  0.0643192  0.9953423  0.8518086    0.00000       Uiso       1.00
      H231          H  0.8549539  0.9498019  0.7747030    0.00000       Uiso       1.00
      H232          H  0.7775897  0.9497991  0.8520644    0.00000       Uiso       1.00
      C355          C  0.7944984  0.7357280  0.8821522    0.00000       Uiso       1.00
       O81          O  0.8047009  0.7617270  0.8941184    0.00000       Uiso       1.00
       O82          O  0.7670172  0.7206908  0.8950296    0.00000       Uiso       1.00
      H233          H  0.7586510  0.7334578  0.9131773    0.00000       Uiso       1.00
      C356          C  0.7943883  0.9394880  0.8818960    0.00000       Uiso       1.00
       O83          O  0.8045797  0.9356645  0.8938723    0.00000       Uiso       1.00
       O84          O  0.7669126  0.9399153  0.8947680    0.00000       Uiso       1.00
      H234          H  0.7585405  0.9369321  0.9129208    0.00000       Uiso       1.00
      C357          C  0.8558576  0.0009962  0.0572878    0.00000       Uiso       1.00
       O85          O  0.8596865  0.9907992  0.0312913    0.00000       Uiso       1.00
       O86          O  0.8554345  0.0284677  0.0723147    0.00000       Uiso       1.00
      H235          H  0.8584248  0.0368328  0.0595437    0.00000       Uiso       1.00
      C358          C  0.0596534  0.9104583  0.8531227    0.00000       Uiso       1.00
       O87          O  0.0336489  0.8984793  0.8569584    0.00000       Uiso       1.00
       O88          O  0.0746848  0.8975950  0.8526942    0.00000       Uiso       1.00
      H236          H  0.0619097  0.8794451  0.8556870    0.00000       Uiso       1.00
      C359          C  0.8535789  0.7677767  0.8507180    0.00000       Uiso       1.00
      C360          C  0.8473128  0.7820138  0.8806034    0.00000       Uiso       1.00
      C361          C  0.8576990  0.8122110  0.8920338    0.00000       Uiso       1.00
      C362          C  0.8709844  0.7846545  0.8325825    0.00000       Uiso       1.00
      C363          C  0.8818315  0.8146892  0.8438905    0.00000       Uiso       1.00
      C364          C  0.8750992  0.8293212  0.8738809    0.00000       Uiso       1.00
      H237          H  0.9734901  0.8775942  0.8488234    0.00000       Uiso       1.00
      H238          H  0.8987362  0.8999878  0.9664934    0.00000       Uiso       1.00
      H239          H  0.8343123  0.7697615  0.8952375    0.00000       Uiso       1.00
      C365          C  0.0276114  0.9419414  0.8575462    0.00000       Uiso       1.00
      C366          C  0.0132897  0.9120770  0.8481655    0.00000       Uiso       1.00
      C367          C  0.9830840  0.9007354  0.8564920    0.00000       Uiso       1.00
      C368          C  0.0108092  0.9601453  0.8751197    0.00000       Uiso       1.00
      C369          C  0.9807746  0.9489291  0.8829320    0.00000       Uiso       1.00
      C370          C  0.9660530  0.9189619  0.8743075    0.00000       Uiso       1.00
      H240          H  0.8517483  0.8217385  0.9151815    0.00000       Uiso       1.00
      H241          H  0.9177210  0.9440534  0.8492370    0.00000       Uiso       1.00
      H242          H  0.0254810  0.8973953  0.8343174    0.00000       Uiso       1.00
      C371          C  0.8601356  0.9418715  0.0252468    0.00000       Uiso       1.00
      C372          C  0.8507451  0.9481552  0.0110289    0.00000       Uiso       1.00
      C373          C  0.8590059  0.9376858  0.9808275    0.00000       Uiso       1.00
      C374          C  0.8776140  0.9243436  0.0083305    0.00000       Uiso       1.00
      C375          C  0.8853722  0.9134195  0.9782985    0.00000       Uiso       1.00
      C376          C  0.8767616  0.9201890  0.9636856    0.00000       Uiso       1.00
      H243          H  0.8313239  0.8967127  0.8928418    0.00000       Uiso       1.00
      H244          H  0.8951911  0.8264753  0.8288735    0.00000       Uiso       1.00
      H245          H  0.8369440  0.9612342  0.0232980    0.00000       Uiso       1.00
      C377          C  0.8533229  0.9351707  0.8507001    0.00000       Uiso       1.00
      C378          C  0.8351393  0.9177241  0.8682788    0.00000       Uiso       1.00
      C379          C  0.8463824  0.9100463  0.8793756    0.00000       Uiso       1.00
      C380          C  0.8832044  0.9445754  0.8445109    0.00000       Uiso       1.00
      C381          C  0.8945721  0.9363822  0.8551452    0.00000       Uiso       1.00
      C382          C  0.8763626  0.9186718  0.8727081    0.00000       Uiso       1.00
      H246          H  0.8513456  0.9436573  0.9713131    0.00000       Uiso       1.00
      H247          H  0.9690542  0.9639952  0.8963429    0.00000       Uiso       1.00
      H248          H  0.8120688  0.9091452  0.8729424    0.00000       Uiso       1.00
      C383          C  0.8776917  0.7706528  0.7997052    0.00000       Uiso       1.00
       O89          O  0.8929606  0.7857795  0.7842008    0.00000       Uiso       1.00
       O90          O  0.8667328  0.7415642  0.7878143    0.00000       Uiso       1.00
      H249          H  0.8729120  0.7363850  0.7672724    0.00000       Uiso       1.00
      C384          C  0.9040949  0.9641668  0.8258348    0.00000       Uiso       1.00
       O91          O  0.9302427  0.9723509  0.8204690    0.00000       Uiso       1.00
       O92          O  0.8936333  0.9724191  0.8152753    0.00000       Uiso       1.00
      H250          H  0.9093627  0.9844868  0.8041716    0.00000       Uiso       1.00
      C385          C  0.8897882  0.9175827  0.0222759    0.00000       Uiso       1.00
       O93          O  0.9050343  0.9022088  0.0071215    0.00000       Uiso       1.00
       O94          O  0.8836820  0.9286094  0.0513454    0.00000       Uiso       1.00
      H251          H  0.8928497  0.9223836  0.0564893    0.00000       Uiso       1.00
      C386          C  0.0248869  0.9930072  0.8873231    0.00000       Uiso       1.00
       O95          O  0.0098220  0.0085617  0.9026502    0.00000       Uiso       1.00
       O96          O  0.0539741  0.0048299  0.8811535    0.00000       Uiso       1.00
      H252          H  0.0592050  0.0253718  0.8903506    0.00000       Uiso       1.00
      C387          C  0.8771777  0.9197957  0.9176224    0.00000       Uiso       1.00
      C388          C  0.9199362  0.8738658  0.8747571    0.00000       Uiso       1.00
      C389          C  0.8878754  0.9081334  0.8841231    0.00000       Uiso       1.00
      C390          C  0.9215062  0.9182183  0.8732144    0.00000       Uiso       1.00
      H253          H  0.9300877  0.9421663  0.8803791    0.00000       Uiso       1.00
      H254          H  0.9299002  0.9100286  0.8492160    0.00000       Uiso       1.00
      C391          C  0.8872699  0.9088520  0.9302151    0.00000       Uiso       1.00
      C392          C  0.8755603  0.8753658  0.9190844    0.00000       Uiso       1.00
      H255          H  0.8515567  0.8679640  0.9274879    0.00000       Uiso       1.00
      H256          H  0.8827155  0.8671083  0.9276125    0.00000       Uiso       1.00
      C393          C  0.8864552  0.8627771  0.8854620    0.00000       Uiso       1.00
      H257          H  0.9281625  0.8653322  0.8508094    0.00000       Uiso       1.00
      C394          C  0.8763021  0.8746167  0.8739523    0.00000       Uiso       1.00
      H258          H  0.8837212  0.8665135  0.8500124    0.00000       Uiso       1.00
      H259          H  0.8523548  0.8662337  0.8814023    0.00000       Uiso       1.00
      C395          C  0.9207907  0.9190018  0.9183843    0.00000       Uiso       1.00
      H260          H  0.9273242  0.8654397  0.8829359    0.00000       Uiso       1.00
      C396          C  0.9325867  0.9074764  0.8848712    0.00000       Uiso       1.00
      H261          H  0.9291810  0.9115498  0.9264776    0.00000       Uiso       1.00
      H262          H  0.9289263  0.9429425  0.9267828    0.00000       Uiso       1.00
      H263          H  0.8853992  0.9437940  0.9250385    0.00000       Uiso       1.00
      H264          H  0.8532262  0.9126512  0.9258657    0.00000       Uiso       1.00
        B1          B  0.4489184  0.5869174  0.7680140    0.00000       Uiso       1.00
        N1          N  0.4489287  0.6003187  0.7959315    0.00000       Uiso       1.00
        N2          N  0.4489445  0.6427681  0.7959175    0.00000       Uiso       1.00
        B2          B  0.4489261  0.6282387  0.8093213    0.00000       Uiso       1.00
        B3          B  0.4489338  0.6282325  0.7680002    0.00000       Uiso       1.00
        N3          N  0.4489366  0.6003124  0.7534760    0.00000       Uiso       1.00
        B4          B  0.7708613  0.6280586  0.4457104    0.00000       Uiso       1.00
        N4          N  0.7987888  0.6425951  0.4457119    0.00000       Uiso       1.00
        N5          N  0.7987733  0.6001459  0.4457262    0.00000       Uiso       1.00
        B5          B  0.8121826  0.6280663  0.4457043    0.00000       Uiso       1.00
        B6          B  0.7708462  0.5867438  0.4457243    0.00000       Uiso       1.00
        N6          N  0.7563176  0.6001380  0.4457325    0.00000       Uiso       1.00
      C397          C  0.3957224  0.5591639  0.3685926    0.00000       Uiso       1.00
      C398          C  0.3970263  0.5606393  0.3440470    0.00000       Uiso       1.00
      C399          C  0.4226786  0.5635149  0.3204841    0.00000       Uiso       1.00
      C400          C  0.4231962  0.5634984  0.2955211    0.00000       Uiso       1.00
      C401          C  0.3976507  0.5589675  0.2929080    0.00000       Uiso       1.00
      C402          C  0.3719415  0.5556764  0.3167639    0.00000       Uiso       1.00
      C403          C  0.3715443  0.5585096  0.3430892    0.00000       Uiso       1.00
       O97          O  0.4183301  0.5597886  0.3725277    0.00000       Uiso       1.00
      H265          H  0.4423701  0.5658034  0.3215300    0.00000       Uiso       1.00
      H266          H  0.4437377  0.5667500  0.2783363    0.00000       Uiso       1.00
      H267          H  0.3517205  0.5490434  0.3142940    0.00000       Uiso       1.00
      C404          C  0.1958950  0.5592063  0.3924143    0.00000       Uiso       1.00
      C405          C  0.2206283  0.5607072  0.3937121    0.00000       Uiso       1.00
      C406          C  0.2214113  0.5635712  0.4193521    0.00000       Uiso       1.00
      C407          C  0.2458481  0.5635545  0.4198540    0.00000       Uiso       1.00
      C408          C  0.2694844  0.5590276  0.3943050    0.00000       Uiso       1.00
      C409          C  0.2680521  0.5557621  0.3686123    0.00000       Uiso       1.00
      C410          C  0.2449521  0.5585991  0.3682310    0.00000       Uiso       1.00
       O98          O  0.1699531  0.5597857  0.4150189    0.00000       Uiso       1.00
      H268          H  0.2029509  0.5658364  0.4390435    0.00000       Uiso       1.00
      H269          H  0.2457353  0.5667937  0.4403865    0.00000       Uiso       1.00
      H270          H  0.2841084  0.5491353  0.3483878    0.00000       Uiso       1.00
      C411          C  0.3720030  0.5591829  0.1925454    0.00000       Uiso       1.00
      C412          C  0.3474723  0.5607004  0.2172857    0.00000       Uiso       1.00
      C413          C  0.3239284  0.5635964  0.2180792    0.00000       Uiso       1.00
      C414          C  0.2989678  0.5636100  0.2425295    0.00000       Uiso       1.00
      C415          C  0.2963400  0.5590897  0.2661714    0.00000       Uiso       1.00
      C416          C  0.3201869  0.5557936  0.2647305    0.00000       Uiso       1.00
      C417          C  0.3465086  0.5585876  0.2416066    0.00000       Uiso       1.00
       O99          O  0.3759382  0.5597946  0.1666196    0.00000       Uiso       1.00
      H271          H  0.3249874  0.5658627  0.1996101    0.00000       Uiso       1.00
      H272          H  0.2817925  0.5668640  0.2424248    0.00000       Uiso       1.00
      H273          H  0.3177085  0.5491769  0.2808037    0.00000       Uiso       1.00
      C418          C  0.3946926  0.5554472  0.1913682    0.00000       Uiso       1.00
      C419          C  0.3952303  0.5547658  0.2154141    0.00000       Uiso       1.00
      C420          C  0.4187929  0.5516390  0.2143196    0.00000       Uiso       1.00
      C421          C  0.4194025  0.5521046  0.2389420    0.00000       Uiso       1.00
      C422          C  0.3971825  0.5573764  0.2657089    0.00000       Uiso       1.00
      C423          C  0.3739581  0.5611242  0.2664589    0.00000       Uiso       1.00
      C424          C  0.3714875  0.5577638  0.2413505    0.00000       Uiso       1.00
      O100          O  0.4163219  0.5533153  0.1645821    0.00000       Uiso       1.00
      H274          H  0.4367197  0.5487191  0.1942194    0.00000       Uiso       1.00
      H275          H  0.4375638  0.5485331  0.2366874    0.00000       Uiso       1.00
      H276          H  0.3584977  0.5683677  0.2869612    0.00000       Uiso       1.00
      C425          C  0.1947406  0.5555120  0.3671692    0.00000       Uiso       1.00
      C426          C  0.2188009  0.5548543  0.3419011    0.00000       Uiso       1.00
      C427          C  0.2177368  0.5517812  0.3163121    0.00000       Uiso       1.00
      C428          C  0.2423723  0.5522633  0.2915439    0.00000       Uiso       1.00
      C429          C  0.2691270  0.5574919  0.2922554    0.00000       Uiso       1.00
      C430          C  0.2698463  0.5611900  0.3184739    0.00000       Uiso       1.00
      C431          C  0.2447217  0.5578184  0.3426936    0.00000       Uiso       1.00
      O101          O  0.1679596  0.5533842  0.3702009    0.00000       Uiso       1.00
      H277          H  0.1976451  0.5488778  0.3155679    0.00000       Uiso       1.00
      H278          H  0.2401311  0.5487285  0.2720721    0.00000       Uiso       1.00
      H279          H  0.2903391  0.5684164  0.3206835    0.00000       Uiso       1.00
      C432          C  0.3704664  0.5554695  0.3913087    0.00000       Uiso       1.00
      C433          C  0.3451998  0.5547874  0.3918508    0.00000       Uiso       1.00
      C434          C  0.3196096  0.5517255  0.4154478    0.00000       Uiso       1.00
      C435          C  0.2948447  0.5522062  0.4160723    0.00000       Uiso       1.00
      C436          C  0.2955604  0.5574116  0.3938166    0.00000       Uiso       1.00
      C437          C  0.3217810  0.5610865  0.3705498    0.00000       Uiso       1.00
      C438          C  0.3459982  0.5577269  0.3680846    0.00000       Uiso       1.00
      O102          O  0.3734904  0.5533817  0.4129559    0.00000       Uiso       1.00
      H280          H  0.3188682  0.5488398  0.4333898    0.00000       Uiso       1.00
      H281          H  0.2753752  0.5486925  0.4342735    0.00000       Uiso       1.00
      H282          H  0.3239966  0.5682923  0.3550539    0.00000       Uiso       1.00
        B7          B  0.4039580  0.5561097  0.4007793    0.00000       Uiso       1.00
        B8          B  0.1523800  0.5560847  0.4006603    0.00000       Uiso       1.00
        B9          B  0.4041641  0.5560668  0.1490294    0.00000       Uiso       1.00
      C439          C  0.3719842  0.2037391  0.3926907    0.00000       Uiso       1.00
      C440          C  0.3474298  0.1790130  0.3940015    0.00000       Uiso       1.00
      C441          C  0.3238666  0.1782266  0.4196521    0.00000       Uiso       1.00
      C442          C  0.2988945  0.1537887  0.4201771    0.00000       Uiso       1.00
      C443          C  0.2962720  0.1301515  0.3946411    0.00000       Uiso       1.00
      C444          C  0.3201283  0.1315897  0.3689335    0.00000       Uiso       1.00
      C445          C  0.3464631  0.1546941  0.3685285    0.00000       Uiso       1.00
      O103          O  0.3759283  0.2296661  0.4152896    0.00000       Uiso       1.00
      H283          H  0.3249195  0.1966825  0.4393366    0.00000       Uiso       1.00
      H284          H  0.2817101  0.1538940  0.4407167    0.00000       Uiso       1.00
      H285          H  0.3176509  0.1155244  0.3487203    0.00000       Uiso       1.00
      C446          C  0.3957475  0.0276326  0.1929233    0.00000       Uiso       1.00
      C447          C  0.3970540  0.0521715  0.2176479    0.00000       Uiso       1.00
      C448          C  0.4227037  0.0757401  0.2184228    0.00000       Uiso       1.00
      C449          C  0.4232140  0.1007040  0.2428512    0.00000       Uiso       1.00
      C450          C  0.3976637  0.1033168  0.2664874    0.00000       Uiso       1.00
      C451          C  0.3719610  0.0794474  0.2650634    0.00000       Uiso       1.00
      C452          C  0.3715717  0.0531211  0.2419712    0.00000       Uiso       1.00
      O104          O  0.4183517  0.0237155  0.1669833    0.00000       Uiso       1.00
      H286          H  0.4423962  0.0747071  0.1999626    0.00000       Uiso       1.00
      H287          H  0.4437540  0.1178920  0.2427322    0.00000       Uiso       1.00
      H288          H  0.3517346  0.0819041  0.2811207    0.00000       Uiso       1.00
      C453          C  0.1958634  0.0038799  0.3690321    0.00000       Uiso       1.00
      C454          C  0.2206047  0.0025729  0.3445022    0.00000       Uiso       1.00
      C455          C  0.2213905  0.9769186  0.3209659    0.00000       Uiso       1.00
      C456          C  0.2458415  0.9763953  0.2960064    0.00000       Uiso       1.00
      C457          C  0.2694914  0.0019381  0.2933725    0.00000       Uiso       1.00
      C458          C  0.2680582  0.0276477  0.3172119    0.00000       Uiso       1.00
      C459          C  0.2449343  0.0280517  0.3435316    0.00000       Uiso       1.00
      O105          O  0.1699293  0.9812689  0.3729738    0.00000       Uiso       1.00
      H289          H  0.2029148  0.9572355  0.3220299    0.00000       Uiso       1.00
      H290          H  0.2457309  0.9558553  0.2788367    0.00000       Uiso       1.00
      H291          H  0.2841367  0.0478647  0.3147298    0.00000       Uiso       1.00
      C460          C  0.1946936  0.0291353  0.3917146    0.00000       Uiso       1.00
      C461          C  0.2187487  0.0544095  0.3922449    0.00000       Uiso       1.00
      C462          C  0.2176617  0.0800121  0.4158001    0.00000       Uiso       1.00
      C463          C  0.2422935  0.1047877  0.4164020    0.00000       Uiso       1.00
      C464          C  0.2690627  0.1040651  0.3941813    0.00000       Uiso       1.00
      C465          C  0.2698050  0.0778352  0.3709643    0.00000       Uiso       1.00
      C466          C  0.2446867  0.0536067  0.3685023    0.00000       Uiso       1.00
      O106          O  0.1679048  0.0261078  0.4133448    0.00000       Uiso       1.00
      H292          H  0.1975602  0.0807571  0.4337269    0.00000       Uiso       1.00
      H293          H  0.2400443  0.1242714  0.4345580    0.00000       Uiso       1.00
      H294          H  0.2903095  0.0756359  0.3555028    0.00000       Uiso       1.00
      C467          C  0.3704928  0.0049177  0.1917770    0.00000       Uiso       1.00
      C468          C  0.3452233  0.0043664  0.2158369    0.00000       Uiso       1.00
      C469          C  0.3196247  0.9807761  0.2147809    0.00000       Uiso       1.00
      C470          C  0.2948555  0.9801605  0.2394155    0.00000       Uiso       1.00
      C471          C  0.2955760  0.0024076  0.2661609    0.00000       Uiso       1.00
      C472          C  0.3218044  0.0256570  0.2668719    0.00000       Uiso       1.00
      C473          C  0.3460248  0.0281245  0.2417486    0.00000       Uiso       1.00
      O107          O  0.3735167  0.9832880  0.1650042    0.00000       Uiso       1.00
      H295          H  0.3188735  0.9628367  0.1946963    0.00000       Uiso       1.00
      H296          H  0.2753758  0.9619744  0.2371811    0.00000       Uiso       1.00
      H297          H  0.3240215  0.0411406  0.2873569    0.00000       Uiso       1.00
      C474          C  0.3947003  0.2048935  0.3674365    0.00000       Uiso       1.00
      C475          C  0.3952341  0.1808428  0.3421782    0.00000       Uiso       1.00
      C476          C  0.4188314  0.1819119  0.3165897    0.00000       Uiso       1.00
      C477          C  0.4194478  0.1572827  0.2918330    0.00000       Uiso       1.00
      C478          C  0.3971840  0.1305291  0.2925549    0.00000       Uiso       1.00
      C479          C  0.3739172  0.1298080  0.3187735    0.00000       Uiso       1.00
      C480          C  0.3714593  0.1549270  0.3429835    0.00000       Uiso       1.00
      O108          O  0.4163567  0.2316617  0.3704531    0.00000       Uiso       1.00
      H298          H  0.4367799  0.2020045  0.3158432    0.00000       Uiso       1.00
      H299          H  0.4376494  0.1595284  0.2723647    0.00000       Uiso       1.00
      H300          H  0.3584160  0.1093166  0.3209927    0.00000       Uiso       1.00
       B10          B  0.4041857  0.2472303  0.4009140    0.00000       Uiso       1.00
       B11          B  0.4039821  0.9954734  0.1494206    0.00000       Uiso       1.00
       B12          B  0.1523422  0.9956355  0.4011956    0.00000       Uiso       1.00
       B13          B  0.7709138  0.9504922  0.8093529    0.00000       Uiso       1.00
        N7          N  0.7988383  0.9504848  0.7959496    0.00000       Uiso       1.00
        N8          N  0.7988465  0.9504784  0.7534938    0.00000       Uiso       1.00
       B14          B  0.8122427  0.9504936  0.7680255    0.00000       Uiso       1.00
       B15          B  0.7709217  0.9504859  0.7680316    0.00000       Uiso       1.00
        N9          N  0.7563828  0.9504769  0.7959560    0.00000       Uiso       1.00
      C481          C  0.3721992  0.0036365  0.8370450    0.00000       Uiso       1.00
      C482          C  0.3476539  0.0023331  0.8355700    0.00000       Uiso       1.00
      C483          C  0.3240869  0.9766850  0.8327073    0.00000       Uiso       1.00
      C484          C  0.2991238  0.9761674  0.8327241    0.00000       Uiso       1.00
      C485          C  0.2965139  0.0017085  0.8372424    0.00000       Uiso       1.00
      C486          C  0.3203738  0.0274131  0.8405206    0.00000       Uiso       1.00
      C487          C  0.3467007  0.0278108  0.8376867    0.00000       Uiso       1.00
      O109          O  0.3761296  0.9810320  0.8364320    0.00000       Uiso       1.00
      H301          H  0.3251297  0.9569970  0.8304288    0.00000       Uiso       1.00
      H302          H  0.2819361  0.9556298  0.8294827    0.00000       Uiso       1.00
      H303          H  0.3179050  0.0476295  0.8471440    0.00000       Uiso       1.00
      C488          C  0.3960652  0.2034340  0.8368983    0.00000       Uiso       1.00
      C489          C  0.3973583  0.1787048  0.8354101    0.00000       Uiso       1.00
      C490          C  0.4229996  0.1779225  0.8325460    0.00000       Uiso       1.00
      C491          C  0.4234960  0.1534894  0.8325755    0.00000       Uiso       1.00
      C492          C  0.3979395  0.1298556  0.8371154    0.00000       Uiso       1.00
      C493          C  0.3722454  0.1312870  0.8403807    0.00000       Uiso       1.00
      C494          C  0.3718707  0.1543841  0.8375312    0.00000       Uiso       1.00
      O110          O  0.4186758  0.2293721  0.8363053    0.00000       Uiso       1.00
      H304          H  0.4426963  0.1963806  0.8302709    0.00000       Uiso       1.00
      H305          H  0.4440303  0.1536029  0.8293358    0.00000       Uiso       1.00
      H306          H  0.3520138  0.1152315  0.8470169    0.00000       Uiso       1.00
      C495          C  0.1961572  0.0273524  0.8370135    0.00000       Uiso       1.00
      C496          C  0.2209037  0.0518797  0.8354830    0.00000       Uiso       1.00
      C497          C  0.2217039  0.0754207  0.8325744    0.00000       Uiso       1.00
      C498          C  0.2461598  0.1003775  0.8325477    0.00000       Uiso       1.00
      C499          C  0.2697999  0.1030040  0.8370673    0.00000       Uiso       1.00
      C500          C  0.2683520  0.0791599  0.8403763    0.00000       Uiso       1.00
      C501          C  0.2452237  0.0528428  0.8375957    0.00000       Uiso       1.00
      O111          O  0.1702307  0.0234179  0.8364038    0.00000       Uiso       1.00
      H307          H  0.2032358  0.0743624  0.8303082    0.00000       Uiso       1.00
      H308          H  0.2460606  0.1175511  0.8292843    0.00000       Uiso       1.00
      H309          H  0.2844224  0.0816365  0.8469927    0.00000       Uiso       1.00
      C502          C  0.1949730  0.0046653  0.8407617    0.00000       Uiso       1.00
      C503          C  0.2190184  0.0041276  0.8414434    0.00000       Uiso       1.00
      C504          C  0.2179171  0.9805674  0.8445830    0.00000       Uiso       1.00
      C505          C  0.2425396  0.9799581  0.8441176    0.00000       Uiso       1.00
      C506          C  0.2693141  0.0021762  0.8388335    0.00000       Uiso       1.00
      C507          C  0.2700712  0.0253980  0.8350730    0.00000       Uiso       1.00
      C508          C  0.2449617  0.0278674  0.8384326    0.00000       Uiso       1.00
      O112          O  0.1681810  0.9830384  0.8429051    0.00000       Uiso       1.00
      H310          H  0.1978114  0.9626428  0.8475127    0.00000       Uiso       1.00
      H311          H  0.2402791  0.9617987  0.8476992    0.00000       Uiso       1.00
      H312          H  0.2905807  0.0408576  0.8278204    0.00000       Uiso       1.00
      C509          C  0.3708184  0.2045874  0.8405925    0.00000       Uiso       1.00
      C510          C  0.3455446  0.1805305  0.8412629    0.00000       Uiso       1.00
      C511          C  0.3199543  0.1815938  0.8443358    0.00000       Uiso       1.00
      C512          C  0.2951808  0.1569621  0.8438666    0.00000       Uiso       1.00
      C513          C  0.2958891  0.1302125  0.8386512    0.00000       Uiso       1.00
      C514          C  0.3221094  0.1294942  0.8349528    0.00000       Uiso       1.00
      C515          C  0.3463330  0.1546143  0.8383119    0.00000       Uiso       1.00
      O113          O  0.3738550  0.2313639  0.8427066    0.00000       Uiso       1.00
      H313          H  0.3192130  0.2016819  0.8472292    0.00000       Uiso       1.00
      H314          H  0.2757077  0.1592021  0.8474007    0.00000       Uiso       1.00
      H315          H  0.3243183  0.1090061  0.8277361    0.00000       Uiso       1.00
      C516          C  0.3949189  0.0288879  0.8407268    0.00000       Uiso       1.00
      C517          C  0.3954662  0.0541506  0.8413957    0.00000       Uiso       1.00
      C518          C  0.4190674  0.0797362  0.8444447    0.00000       Uiso       1.00
      C519          C  0.4196976  0.1044975  0.8439510    0.00000       Uiso       1.00
      C520          C  0.3974445  0.1037831  0.8387452    0.00000       Uiso       1.00
      C521          C  0.3741738  0.0775673  0.8350835    0.00000       Uiso       1.00
      C522          C  0.3717014  0.0533529  0.8384562    0.00000       Uiso       1.00
      O114          O  0.4165643  0.0258639  0.8428164    0.00000       Uiso       1.00
      H316          H  0.4370080  0.0804770  0.8473304    0.00000       Uiso       1.00
      H317          H  0.4379013  0.1239633  0.8474551    0.00000       Uiso       1.00
      H318          H  0.3586811  0.0753536  0.8278778    0.00000       Uiso       1.00
       B16          B  0.4043825  0.9954012  0.8401039    0.00000       Uiso       1.00
       B17          B  0.4043193  0.2469417  0.8399976    0.00000       Uiso       1.00
       B18          B  0.1526325  0.9951951  0.8401470    0.00000       Uiso       1.00
       B19          B  0.7707862  0.5867896  0.7681515    0.00000       Uiso       1.00
       N10          N  0.7987159  0.6001897  0.7536094    0.00000       Uiso       1.00
       N11          N  0.7987241  0.6426455  0.7960506    0.00000       Uiso       1.00
       B20          B  0.8121228  0.6281124  0.7681315    0.00000       Uiso       1.00
       B21          B  0.7707941  0.6281109  0.8094587    0.00000       Uiso       1.00
       N12          N  0.7562525  0.6001883  0.7960712    0.00000       Uiso       1.00
      C523          C  0.8398772  0.2036366  0.3689813    0.00000       Uiso       1.00
      C524          C  0.8383934  0.1789110  0.3444448    0.00000       Uiso       1.00
      C525          C  0.8355228  0.1781210  0.3208875    0.00000       Uiso       1.00
      C526          C  0.8355312  0.1536839  0.2959327    0.00000       Uiso       1.00
      C527          C  0.8400494  0.1300515  0.2933215    0.00000       Uiso       1.00
      C528          C  0.8433359  0.1314933  0.3171715    0.00000       Uiso       1.00
      C529          C  0.8405098  0.1545963  0.3434904    0.00000       Uiso       1.00
      O115          O  0.8392662  0.2295600  0.3729113    0.00000       Uiso       1.00
      H319          H  0.8332444  0.1965735  0.3219312    0.00000       Uiso       1.00
      H320          H  0.8322836  0.1537862  0.2787526    0.00000       Uiso       1.00
      H321          H  0.8499602  0.1154324  0.3147008    0.00000       Uiso       1.00
      C530          C  0.8397313  0.0275592  0.3928322    0.00000       Uiso       1.00
      C531          C  0.8382439  0.0520941  0.3941262    0.00000       Uiso       1.00
      C532          C  0.8353874  0.0756612  0.4197597    0.00000       Uiso       1.00
      C533          C  0.8354179  0.1006213  0.4202569    0.00000       Uiso       1.00
      C534          C  0.8399518  0.1032324  0.3947084    0.00000       Uiso       1.00
      C535          C  0.8432096  0.0793647  0.3690219    0.00000       Uiso       1.00
      C536          C  0.8403581  0.0530414  0.3686474    0.00000       Uiso       1.00
      O116          O  0.8391448  0.0236451  0.4154344    0.00000       Uiso       1.00
      H322          H  0.8331174  0.0746297  0.4394498    0.00000       Uiso       1.00
      H323          H  0.8321839  0.1178080  0.4407852    0.00000       Uiso       1.00
      H324          H  0.8498420  0.0818210  0.3487958    0.00000       Uiso       1.00
      C537          C  0.8397857  0.0037873  0.1929976    0.00000       Uiso       1.00
      C538          C  0.8382620  0.0024828  0.2177355    0.00000       Uiso       1.00
      C539          C  0.8353518  0.9768314  0.2185354    0.00000       Uiso       1.00
      C540          C  0.8353325  0.9763111  0.2429822    0.00000       Uiso       1.00
      C541          C  0.8398616  0.0018543  0.2666129    0.00000       Uiso       1.00
      C542          C  0.8431721  0.0275609  0.2651654    0.00000       Uiso       1.00
      C543          C  0.8403837  0.0279613  0.2420466    0.00000       Uiso       1.00
      O117          O  0.8391673  0.9811766  0.1670803    0.00000       Uiso       1.00
      H325          H  0.8330786  0.9571484  0.2000742    0.00000       Uiso       1.00
      H326          H  0.8320672  0.9557731  0.2428834    0.00000       Uiso       1.00
      H327          H  0.8497964  0.0477789  0.2812282    0.00000       Uiso       1.00
      C544          C  0.8435356  0.0290401  0.1918135    0.00000       Uiso       1.00
      C545          C  0.8442258  0.0543135  0.2158507    0.00000       Uiso       1.00
      C546          C  0.8473670  0.0799131  0.2147496    0.00000       Uiso       1.00
      C547          C  0.8469098  0.1046876  0.2393640    0.00000       Uiso       1.00
      C548          C  0.8416318  0.1039664  0.2661304    0.00000       Uiso       1.00
      C549          C  0.8378693  0.0777393  0.2668875    0.00000       Uiso       1.00
      C550          C  0.8412216  0.0535127  0.2417853    0.00000       Uiso       1.00
      O118          O  0.8456717  0.0260107  0.1650307    0.00000       Uiso       1.00
      H328          H  0.8502916  0.0806567  0.1946504    0.00000       Uiso       1.00
      H329          H  0.8504925  0.1241693  0.2371038    0.00000       Uiso       1.00
      H330          H  0.8306204  0.0755403  0.2873918    0.00000       Uiso       1.00
      C551          C  0.8434184  0.0048461  0.3675928    0.00000       Uiso       1.00
      C552          C  0.8440814  0.0042922  0.3423281    0.00000       Uiso       1.00
      C553          C  0.8471469  0.9807036  0.3167454    0.00000       Uiso       1.00
      C554          C  0.8466701  0.9800851  0.2919813    0.00000       Uiso       1.00
      C555          C  0.8414538  0.0023271  0.2926919    0.00000       Uiso       1.00
      C556          C  0.8377630  0.0255748  0.3189045    0.00000       Uiso       1.00
      C557          C  0.8411304  0.0280458  0.3431180    0.00000       Uiso       1.00
      O119          O  0.8455334  0.9832208  0.3706267    0.00000       Uiso       1.00
      H331          H  0.8500404  0.9627678  0.3160027    0.00000       Uiso       1.00
      H332          H  0.8501989  0.9619008  0.2725135    0.00000       Uiso       1.00
      H333          H  0.8305450  0.0410540  0.3211155    0.00000       Uiso       1.00
      C558          C  0.8435671  0.2047947  0.3916914    0.00000       Uiso       1.00
      C559          C  0.8442357  0.1807479  0.3922374    0.00000       Uiso       1.00
      C560          C  0.8472928  0.1818205  0.4158287    0.00000       Uiso       1.00
      C561          C  0.8467982  0.1571949  0.4164581    0.00000       Uiso       1.00
      C562          C  0.8415830  0.1304410  0.3942140    0.00000       Uiso       1.00
      C563          C  0.8379130  0.1297162  0.3709532    0.00000       Uiso       1.00
      C564          C  0.8412871  0.1548322  0.3684815    0.00000       Uiso       1.00
      O120          O  0.8456650  0.2315620  0.4133290    0.00000       Uiso       1.00
      H334          H  0.8501856  0.2019132  0.4337624    0.00000       Uiso       1.00
      H335          H  0.8503091  0.1594436  0.4346538    0.00000       Uiso       1.00
      H336          H  0.8306995  0.1092237  0.3554680    0.00000       Uiso       1.00
       B22          B  0.8429485  0.2471260  0.4011531    0.00000       Uiso       1.00
       B23          B  0.8428331  0.9954069  0.4010809    0.00000       Uiso       1.00
       B24          B  0.8429069  0.9955403  0.1494877    0.00000       Uiso       1.00
