data_114
_audit_creation_date              0000-00-00
_audit_creation_method            'LanYouShi'
_symmetry_space_group_name_H-M    'P1'
_cell_length_a                    58.0653000
_cell_length_b                    58.0652008
_cell_length_c                    58.0844002
_cell_angle_alpha                 60.0108986
_cell_angle_beta                  119.9890976
_cell_angle_gamma                 120.0241013
loop_
_atom_site_label
_atom_site_type_symbol
_atom_site_fract_x
_atom_site_fract_y
_atom_site_fract_z
_atom_site_U_iso_or_equiv
_atom_site_adp_type
_atom_site_occupancy
        C1          C  0.7189329  0.5822333  0.5839817    0.00000       Uiso       1.00
        C2          C  0.7042689  0.5551944  0.5984300    0.00000       Uiso       1.00
        C3          C  0.6753642  0.5428077  0.5860866    0.00000       Uiso       1.00
        C4          C  0.7042978  0.5966917  0.5569617    0.00000       Uiso       1.00
        C5          C  0.6753930  0.5843396  0.5445837    0.00000       Uiso       1.00
        C6          C  0.6602827  0.5566053  0.5583717    0.00000       Uiso       1.00
        H1          H  0.4805112  0.5435448  0.3398179    0.00000       Uiso       1.00
        H2          H  0.7159407  0.6187338  0.5448479    0.00000       Uiso       1.00
        H3          H  0.7158881  0.5430722  0.6204568    0.00000       Uiso       1.00
        C7          C  0.4208140  0.2842024  0.5543550    0.00000       Uiso       1.00
        C8          C  0.4478584  0.2988527  0.5522870    0.00000       Uiso       1.00
        C9          C  0.4602560  0.3277575  0.5481233    0.00000       Uiso       1.00
       C10          C  0.4063612  0.2988512  0.5522870    0.00000       Uiso       1.00
       C11          C  0.4187242  0.3277560  0.5481233    0.00000       Uiso       1.00
       C12          C  0.4464638  0.3428527  0.5469645    0.00000       Uiso       1.00
        H4          H  0.6646988  0.5225176  0.5986661    0.00000       Uiso       1.00
        H5          H  0.4595668  0.5226923  0.5988496    0.00000       Uiso       1.00
        H6          H  0.3843147  0.2872196  0.5539973    0.00000       Uiso       1.00
        H7          H  0.4599761  0.2872222  0.5539973    0.00000       Uiso       1.00
       C13          C  0.4208188  0.5527328  0.2856464    0.00000       Uiso       1.00
       C14          C  0.4063543  0.5506624  0.3002860    0.00000       Uiso       1.00
       C15          C  0.4186944  0.5464953  0.3291712    0.00000       Uiso       1.00
       C16          C  0.4478514  0.5506638  0.3002860    0.00000       Uiso       1.00
       C17          C  0.4602261  0.5464967  0.3291712    0.00000       Uiso       1.00
       C18          C  0.4464226  0.5453361  0.3442569    0.00000       Uiso       1.00
        H8          H  0.4599785  0.5523762  0.2886628    0.00000       Uiso       1.00
        H9          H  0.3843171  0.5523735  0.2886628    0.00000       Uiso       1.00
       C19          C  0.4504035  0.5824057  0.5841652    0.00000       Uiso       1.00
       C20          C  0.4524876  0.5968648  0.5571452    0.00000       Uiso       1.00
       C21          C  0.4566547  0.5845138  0.5447673    0.00000       Uiso       1.00
       C22          C  0.4524587  0.5553675  0.5986136    0.00000       Uiso       1.00
       C23          C  0.4566258  0.5429819  0.5862702    0.00000       Uiso       1.00
       C24          C  0.4578001  0.5567800  0.5585552    0.00000       Uiso       1.00
       H10          H  0.4061406  0.3384095  0.5451730    0.00000       Uiso       1.00
       H11          H  0.4507352  0.5432448  0.6206403    0.00000       Uiso       1.00
       H12          H  0.4507878  0.6189064  0.5450315    0.00000       Uiso       1.00
       C25          C  0.6602219  0.6022840  0.5156802    0.00000       Uiso       1.00
        O1          O  0.6347871  0.5923075  0.5039693    0.00000       Uiso       1.00
        O2          O  0.6749461  0.6291602  0.5031042    0.00000       Uiso       1.00
       H13          H  0.6624644  0.6373435  0.4853602    0.00000       Uiso       1.00
       C26          C  0.4608797  0.6024590  0.5158637    0.00000       Uiso       1.00
        O3          O  0.4646210  0.5924835  0.5041528    0.00000       Uiso       1.00
        O4          O  0.4604746  0.6293349  0.5032880    0.00000       Uiso       1.00
       H14          H  0.4634017  0.6375186  0.4855441    0.00000       Uiso       1.00
       C27          C  0.4007428  0.5422856  0.3443482    0.00000       Uiso       1.00
        O5          O  0.4107088  0.5385449  0.3697664    0.00000       Uiso       1.00
        O6          O  0.3738720  0.5427038  0.3296479    0.00000       Uiso       1.00
       H15          H  0.3656831  0.5397852  0.3421301    0.00000       Uiso       1.00
       C28          C  0.4891861  0.3429457  0.5439177    0.00000       Uiso       1.00
        O7          O  0.5009149  0.3683812  0.5401800    0.00000       Uiso       1.00
        O8          O  0.5017655  0.3282362  0.5443359    0.00000       Uiso       1.00
       H16          H  0.5195270  0.3407273  0.5414200    0.00000       Uiso       1.00
       C29          C  0.6288390  0.5445054  0.5463827    0.00000       Uiso       1.00
       C30          C  0.6149223  0.5506306  0.5171620    0.00000       Uiso       1.00
       C31          C  0.5853802  0.5404759  0.5059735    0.00000       Uiso       1.00
       C32          C  0.6123157  0.5274886  0.5641021    0.00000       Uiso       1.00
       C33          C  0.5829324  0.5168830  0.5530331    0.00000       Uiso       1.00
       C34          C  0.5686296  0.5234645  0.5237098    0.00000       Uiso       1.00
       H17          H  0.5213637  0.4272310  0.5481598    0.00000       Uiso       1.00
       H18          H  0.4995178  0.5003331  0.4331341    0.00000       Uiso       1.00
       H19          H  0.6269178  0.5633404  0.5028628    0.00000       Uiso       1.00
       C35          C  0.4583972  0.3743019  0.5395931    0.00000       Uiso       1.00
       C36          C  0.4876157  0.3883063  0.5487788    0.00000       Uiso       1.00
       C37          C  0.4987237  0.4178502  0.5406518    0.00000       Uiso       1.00
       C38          C  0.4405991  0.3907400  0.5224114    0.00000       Uiso       1.00
       C39          C  0.4515842  0.4201169  0.5147870    0.00000       Uiso       1.00
       C40          C  0.4809035  0.4345122  0.5232336    0.00000       Uiso       1.00
       H20          H  0.5760688  0.5462932  0.4833414    0.00000       Uiso       1.00
       H21          H  0.4563634  0.4818126  0.5477518    0.00000       Uiso       1.00
       H22          H  0.5019706  0.3763790  0.5623185    0.00000       Uiso       1.00
       C41          C  0.4585735  0.5380912  0.3756919    0.00000       Uiso       1.00
       C42          C  0.4524244  0.5472849  0.3895933    0.00000       Uiso       1.00
       C43          C  0.4626544  0.5392098  0.4191207    0.00000       Uiso       1.00
       C44          C  0.4757103  0.5209916  0.3922305    0.00000       Uiso       1.00
       C45          C  0.4863854  0.5134080  0.4215925    0.00000       Uiso       1.00
       C46          C  0.4797606  0.5218390  0.4358797    0.00000       Uiso       1.00
       H23          H  0.5027193  0.5663067  0.5051644    0.00000       Uiso       1.00
       H24          H  0.5713928  0.5038218  0.5677067    0.00000       Uiso       1.00
       H25          H  0.4396374  0.5607870  0.3775984    0.00000       Uiso       1.00
       C47          C  0.4650744  0.5448110  0.5463454    0.00000       Uiso       1.00
       C48          C  0.4821543  0.5625889  0.5291708    0.00000       Uiso       1.00
       C49          C  0.4896656  0.5515833  0.5183206    0.00000       Uiso       1.00
       C50          C  0.4558620  0.5155824  0.5523835    0.00000       Uiso       1.00
       C51          C  0.4638775  0.5044551  0.5419856    0.00000       Uiso       1.00
       C52          C  0.4812154  0.5222583  0.5248266    0.00000       Uiso       1.00
       H26          H  0.4568117  0.5467091  0.4284232    0.00000       Uiso       1.00
       H27          H  0.4368529  0.4315837  0.5016744    0.00000       Uiso       1.00
       H28          H  0.4905560  0.5851548  0.5246217    0.00000       Uiso       1.00
       C53          C  0.6260010  0.5209329  0.5962477    0.00000       Uiso       1.00
        O9          O  0.6111923  0.5060050  0.6113960    0.00000       Uiso       1.00
       O10          O  0.6544585  0.5316483  0.6078862    0.00000       Uiso       1.00
       H29          H  0.6595168  0.5256081  0.6279693    0.00000       Uiso       1.00
       C54          C  0.4366827  0.4951573  0.5706295    0.00000       Uiso       1.00
       O11          O  0.4286660  0.4695810  0.5758641    0.00000       Uiso       1.00
       O12          O  0.4286092  0.5053983  0.5809538    0.00000       Uiso       1.00
       H30          H  0.4167945  0.4900176  0.5918006    0.00000       Uiso       1.00
       C55          C  0.4823253  0.5090747  0.3785947    0.00000       Uiso       1.00
       O13          O  0.4973560  0.4941590  0.3934109    0.00000       Uiso       1.00
       O14          O  0.4715490  0.5150427  0.3501726    0.00000       Uiso       1.00
       H31          H  0.4776386  0.5060701  0.3451427    0.00000       Uiso       1.00
       C56          C  0.4084491  0.3769745  0.5104650    0.00000       Uiso       1.00
       O15          O  0.3932421  0.3917128  0.4954801    0.00000       Uiso       1.00
       O16          O  0.3968718  0.3485238  0.5164835    0.00000       Uiso       1.00
       H32          H  0.3767767  0.3434100  0.5074834    0.00000       Uiso       1.00
       C57          C  0.4801303  0.5214466  0.4809146    0.00000       Uiso       1.00
       C58          C  0.5250368  0.4796140  0.5228239    0.00000       Uiso       1.00
       C59          C  0.4915254  0.5109879  0.5136663    0.00000       Uiso       1.00
       C60          C  0.4816448  0.4780933  0.5243171    0.00000       Uiso       1.00
       H33          H  0.4582157  0.4697033  0.5173016    0.00000       Uiso       1.00
       H34          H  0.4896466  0.4698863  0.5477795    0.00000       Uiso       1.00
       C61          C  0.4908376  0.5115656  0.4686032    0.00000       Uiso       1.00
       C62          C  0.5235978  0.5230139  0.4795002    0.00000       Uiso       1.00
       H35          H  0.5308495  0.5464918  0.4712947    0.00000       Uiso       1.00
       H36          H  0.5316768  0.5160083  0.4711629    0.00000       Uiso       1.00
       C63          C  0.5358993  0.5123619  0.5123726    0.00000       Uiso       1.00
       H37          H  0.5333748  0.4715710  0.5462370    0.00000       Uiso       1.00
       C64          C  0.5243158  0.5223026  0.5236247    0.00000       Uiso       1.00
       H38          H  0.5322331  0.5150494  0.5470303    0.00000       Uiso       1.00
       H39          H  0.5325271  0.5457255  0.5163516    0.00000       Uiso       1.00
       C65          C  0.4808933  0.4787789  0.4801557    0.00000       Uiso       1.00
       H40          H  0.5332806  0.4723808  0.5148280    0.00000       Uiso       1.00
       C66          C  0.4921542  0.4672456  0.5129205    0.00000       Uiso       1.00
       H41          H  0.4881837  0.4705653  0.4722427    0.00000       Uiso       1.00
       H42          H  0.4574718  0.4708247  0.4719341    0.00000       Uiso       1.00
       H43          H  0.4566521  0.5134089  0.4736534    0.00000       Uiso       1.00
       H44          H  0.4871302  0.5448737  0.4728654    0.00000       Uiso       1.00
       C67          C  0.7192206  0.1437208  0.5840865    0.00000       Uiso       1.00
       C68          C  0.7045770  0.1416443  0.5570634    0.00000       Uiso       1.00
       C69          C  0.6756764  0.1374698  0.5446869    0.00000       Uiso       1.00
       C70          C  0.7045694  0.1416503  0.5985394    0.00000       Uiso       1.00
       C71          C  0.6756688  0.1374758  0.5861974    0.00000       Uiso       1.00
       C72          C  0.6605797  0.1363089  0.5584798    0.00000       Uiso       1.00
       H45          H  0.4808038  0.1881870  0.5454755    0.00000       Uiso       1.00
       H46          H  0.7161957  0.1433675  0.6205687    0.00000       Uiso       1.00
       H47          H  0.7162095  0.1433565  0.5449459    0.00000       Uiso       1.00
       C73          C  0.4213184  0.1732586  0.2862721    0.00000       Uiso       1.00
       C74          C  0.4483596  0.1877245  0.3009148    0.00000       Uiso       1.00
       C75          C  0.4607300  0.1753799  0.3297984    0.00000       Uiso       1.00
       C76          C  0.4068412  0.1462198  0.3009071    0.00000       Uiso       1.00
       C77          C  0.4191771  0.1338405  0.3297908    0.00000       Uiso       1.00
       C78          C  0.4469130  0.1476458  0.3448793    0.00000       Uiso       1.00
       H48          H  0.6650259  0.1345123  0.5244082    0.00000       Uiso       1.00
       H49          H  0.4597883  0.9289771  0.5245522    0.00000       Uiso       1.00
       H50          H  0.3847969  0.1340915  0.2892814    0.00000       Uiso       1.00
       H51          H  0.4604970  0.2097667  0.2892953    0.00000       Uiso       1.00
       C79          C  0.4210876  0.1734813  0.5546647    0.00000       Uiso       1.00
       C80          C  0.4066134  0.1464400  0.5525891    0.00000       Uiso       1.00
       C81          C  0.4189553  0.1340560  0.5484178    0.00000       Uiso       1.00
       C82          C  0.4481318  0.1879448  0.5525967    0.00000       Uiso       1.00
       C83          C  0.4605083  0.1755953  0.5484254    0.00000       Uiso       1.00
       C84          C  0.4466942  0.1478589  0.5472589    0.00000       Uiso       1.00
       H52          H  0.4602668  0.2099889  0.5543132    0.00000       Uiso       1.00
       H53          H  0.3845667  0.1343137  0.5542993    0.00000       Uiso       1.00
       C85          C  0.4505531  0.8747765  0.5842189    0.00000       Uiso       1.00
       C86          C  0.4526297  0.8894284  0.5986749    0.00000       Uiso       1.00
       C87          C  0.4568179  0.9183317  0.5863391    0.00000       Uiso       1.00
       C88          C  0.4526373  0.8894224  0.5571989    0.00000       Uiso       1.00
       C89          C  0.4568254  0.9183257  0.5448285    0.00000       Uiso       1.00
       C90          C  0.4579928  0.9334236  0.5586243    0.00000       Uiso       1.00
       H54          H  0.4065751  0.1135500  0.3404343    0.00000       Uiso       1.00
       H55          H  0.4509202  0.8777893  0.5450789    0.00000       Uiso       1.00
       H56          H  0.4509064  0.8778003  0.6207017    0.00000       Uiso       1.00
       C91          C  0.6604779  0.1332667  0.6041341    0.00000       Uiso       1.00
       O17          O  0.6350459  0.1295195  0.5941660    0.00000       Uiso       1.00
       O18          O  0.6751812  0.1336932  0.6309940    0.00000       Uiso       1.00
       H57          H  0.6626891  0.1307738  0.6391743    0.00000       Uiso       1.00
       C92          C  0.4610329  0.9335223  0.6042792    0.00000       Uiso       1.00
       O19          O  0.4647920  0.9589565  0.5943165    0.00000       Uiso       1.00
       O20          O  0.4605994  0.9188161  0.6311366    0.00000       Uiso       1.00
       H58          H  0.4635239  0.9313083  0.6393198    0.00000       Uiso       1.00
       C93          C  0.4009947  0.1051288  0.5442041    0.00000       Uiso       1.00
       O21          O  0.4109618  0.0934118  0.5404596    0.00000       Uiso       1.00
       O22          O  0.3741144  0.0925390  0.5446227    0.00000       Uiso       1.00
       H59          H  0.3659208  0.0747812  0.5417013    0.00000       Uiso       1.00
       C94          C  0.4896580  0.1933324  0.3449795    0.00000       Uiso       1.00
       O23          O  0.5013633  0.1833625  0.3703965    0.00000       Uiso       1.00
       O24          O  0.5022615  0.2202084  0.3302841    0.00000       Uiso       1.00
       H60          H  0.5200179  0.2283972  0.3427683    0.00000       Uiso       1.00
       C95          C  0.6291385  0.1289536  0.5463893    0.00000       Uiso       1.00
       C96          C  0.6152169  0.1381378  0.5525169    0.00000       Uiso       1.00
       C97          C  0.5856756  0.1299380  0.5423701    0.00000       Uiso       1.00
       C98          C  0.6126214  0.1117212  0.5293787    0.00000       Uiso       1.00
       C99          C  0.5832396  0.1040117  0.5187813    0.00000       Uiso       1.00
      C100          C  0.5689310  0.1124560  0.5253647    0.00000       Uiso       1.00
       H61          H  0.5217490  0.1369728  0.4291972    0.00000       Uiso       1.00
       H62          H  0.4998416  0.1570702  0.5022724    0.00000       Uiso       1.00
       H63          H  0.6272079  0.1517277  0.5652226    0.00000       Uiso       1.00
      C101          C  0.4588170  0.1355008  0.3763062    0.00000       Uiso       1.00
      C102          C  0.4880305  0.1415300  0.3903000    0.00000       Uiso       1.00
      C103          C  0.4991112  0.1312208  0.4198234    0.00000       Uiso       1.00
      C104          C  0.4409956  0.1184451  0.3927335    0.00000       Uiso       1.00
      C105          C  0.4519534  0.1076773  0.4220897    0.00000       Uiso       1.00
      C106          C  0.4812675  0.1141557  0.4364745    0.00000       Uiso       1.00
       H64          H  0.5763598  0.1374457  0.5481886    0.00000       Uiso       1.00
       H65          H  0.4566498  0.0177748  0.4837234    0.00000       Uiso       1.00
       H66          H  0.5024027  0.1542734  0.3783804    0.00000       Uiso       1.00
      C107          C  0.4588497  0.1358132  0.5400115    0.00000       Uiso       1.00
      C108          C  0.4526818  0.1065615  0.5491920    0.00000       Uiso       1.00
      C109          C  0.4629171  0.0953331  0.5411155    0.00000       Uiso       1.00
      C110          C  0.4760105  0.1535126  0.5229234    0.00000       Uiso       1.00
      C111          C  0.4866905  0.1424032  0.5153381    0.00000       Uiso       1.00
      C112          C  0.4800474  0.1130525  0.5237563    0.00000       Uiso       1.00
       H67          H  0.5029415  0.0222329  0.5681671    0.00000       Uiso       1.00
       H68          H  0.5717049  0.0908545  0.5057245    0.00000       Uiso       1.00
       H69          H  0.4398759  0.0922660  0.5626848    0.00000       Uiso       1.00
      C113          C  0.4652894  0.9648848  0.5466704    0.00000       Uiso       1.00
      C114          C  0.4823621  0.9813675  0.5644415    0.00000       Uiso       1.00
      C115          C  0.4898945  0.0107418  0.5534499    0.00000       Uiso       1.00
      C116          C  0.4561055  0.9788640  0.5174631    0.00000       Uiso       1.00
      C117          C  0.4641423  0.0084121  0.5063497    0.00000       Uiso       1.00
      C118          C  0.4814733  0.0251120  0.5241462    0.00000       Uiso       1.00
       H70          H  0.4570593  0.0726830  0.5486045    0.00000       Uiso       1.00
       H71          H  0.4372050  0.0945907  0.4335490    0.00000       Uiso       1.00
       H72          H  0.4907424  0.9717516  0.5869912    0.00000       Uiso       1.00
      C119          C  0.6263111  0.0998101  0.5228198    0.00000       Uiso       1.00
       O25          O  0.6115078  0.0847756  0.5078974    0.00000       Uiso       1.00
       O26          O  0.6547664  0.1059141  0.5335267    0.00000       Uiso       1.00
       H73          H  0.6598279  0.0969251  0.5274857    0.00000       Uiso       1.00
      C120          C  0.4369350  0.9618573  0.4970464    0.00000       Uiso       1.00
       O27          O  0.4289433  0.9741836  0.4714887    0.00000       Uiso       1.00
       O28          O  0.4288416  0.9332115  0.5072741    0.00000       Uiso       1.00
       H74          H  0.4170359  0.9259275  0.4919010    0.00000       Uiso       1.00
      C121          C  0.4826477  0.1856884  0.5110220    0.00000       Uiso       1.00
       O29          O  0.4976992  0.2008197  0.4961162    0.00000       Uiso       1.00
       O30          O  0.4718681  0.1973721  0.5169927    0.00000       Uiso       1.00
       H75          H  0.4779732  0.2174689  0.5080302    0.00000       Uiso       1.00
      C122          C  0.4088497  0.1120064  0.3789787    0.00000       Uiso       1.00
       O31          O  0.3936220  0.0970449  0.3937073    0.00000       Uiso       1.00
       O32          O  0.3972988  0.1228620  0.3505482    0.00000       Uiso       1.00
       H76          H  0.3772025  0.1168803  0.3454388    0.00000       Uiso       1.00
      C123          C  0.4804030  0.0687649  0.5233496    0.00000       Uiso       1.00
      C124          C  0.5253691  0.1135984  0.4815449    0.00000       Uiso       1.00
      C125          C  0.4918058  0.0578607  0.5128905    0.00000       Uiso       1.00
      C126          C  0.4819563  0.0702243  0.4800186    0.00000       Uiso       1.00
       H77          H  0.4585277  0.0621992  0.4716345    0.00000       Uiso       1.00
       H78          H  0.4899643  0.0629660  0.4718120    0.00000       Uiso       1.00
      C127          C  0.4911318  0.1016728  0.5134825    0.00000       Uiso       1.00
      C128          C  0.5238913  0.1120893  0.5249224    0.00000       Uiso       1.00
       H79          H  0.5311211  0.1040686  0.5483842    0.00000       Uiso       1.00
       H80          H  0.5319857  0.1355169  0.5179266    0.00000       Uiso       1.00
      C129          C  0.5362011  0.1021641  0.5142704    0.00000       Uiso       1.00
       H81          H  0.5337135  0.1065619  0.4735023    0.00000       Uiso       1.00
      C130          C  0.5245960  0.0693797  0.5241972    0.00000       Uiso       1.00
       H82          H  0.5325184  0.0611400  0.5169436    0.00000       Uiso       1.00
       H83          H  0.5327857  0.0614412  0.5476040    0.00000       Uiso       1.00
      C131          C  0.4812181  0.1129629  0.4807180    0.00000       Uiso       1.00
       H84          H  0.5336285  0.1370769  0.4743218    0.00000       Uiso       1.00
      C132          C  0.4924879  0.1029860  0.4691854    0.00000       Uiso       1.00
       H85          H  0.4885247  0.1363855  0.4725150    0.00000       Uiso       1.00
       H86          H  0.4577969  0.1057161  0.4727698    0.00000       Uiso       1.00
       H87          H  0.4569248  0.0605844  0.5153174    0.00000       Uiso       1.00
       H88          H  0.4873809  0.0603868  0.5467606    0.00000       Uiso       1.00
      C133          C  0.7188314  0.5823143  0.1451014    0.00000       Uiso       1.00
      C134          C  0.7041917  0.5967764  0.1430334    0.00000       Uiso       1.00
      C135          C  0.6752855  0.5844254  0.1388621    0.00000       Uiso       1.00
      C136          C  0.7041705  0.5552731  0.1430258    0.00000       Uiso       1.00
      C137          C  0.6752642  0.5428876  0.1388545    0.00000       Uiso       1.00
      C138          C  0.6601778  0.5566890  0.1376955    0.00000       Uiso       1.00
       H89          H  0.4802517  0.3379948  0.1895075    0.00000       Uiso       1.00
       H90          H  0.7157934  0.5431479  0.1447359    0.00000       Uiso       1.00
       H91          H  0.7158321  0.6188205  0.1447498    0.00000       Uiso       1.00
      C139          C  0.4208390  0.5527167  0.1746681    0.00000       Uiso       1.00
      C140          C  0.4478718  0.5506477  0.1891210    0.00000       Uiso       1.00
      C141          C  0.4602540  0.5464745  0.1767791    0.00000       Uiso       1.00
      C142          C  0.4063822  0.5506402  0.1476451    0.00000       Uiso       1.00
      C143          C  0.4187298  0.5464671  0.1352686    0.00000       Uiso       1.00
      C144          C  0.4464583  0.5453077  0.1490614    0.00000       Uiso       1.00
       H92          H  0.6646397  0.5970161  0.1359122    0.00000       Uiso       1.00
       H93          H  0.4595442  0.5971615  0.9305194    0.00000       Uiso       1.00
       H94          H  0.3843451  0.5523512  0.1355276    0.00000       Uiso       1.00
       H95          H  0.4599927  0.5523648  0.2111503    0.00000       Uiso       1.00
      C145          C  0.4205195  0.2837816  0.1748023    0.00000       Uiso       1.00
      C146          C  0.4060713  0.2984268  0.1477823    0.00000       Uiso       1.00
      C147          C  0.4184358  0.3273304  0.1354119    0.00000       Uiso       1.00
      C148          C  0.4475608  0.2984343  0.1892582    0.00000       Uiso       1.00
      C149          C  0.4599600  0.3273380  0.1769224    0.00000       Uiso       1.00
      C150          C  0.4461727  0.3424293  0.1492077    0.00000       Uiso       1.00
       H96          H  0.4596749  0.2868068  0.2112851    0.00000       Uiso       1.00
       H97          H  0.3840273  0.2867931  0.1356623    0.00000       Uiso       1.00
      C151          C  0.4503500  0.5824483  0.8763434    0.00000       Uiso       1.00
      C152          C  0.4524052  0.5554100  0.8909785    0.00000       Uiso       1.00
      C153          C  0.4565648  0.5430304  0.9198622    0.00000       Uiso       1.00
      C154          C  0.4524265  0.5969134  0.8909861    0.00000       Uiso       1.00
      C155          C  0.4565860  0.5845684  0.9198697    0.00000       Uiso       1.00
      C156          C  0.4577312  0.5568349  0.9349506    0.00000       Uiso       1.00
       H98          H  0.4061424  0.5435095  0.1149898    0.00000       Uiso       1.00
       H99          H  0.4507266  0.6189550  0.8793666    0.00000       Uiso       1.00
      H100          H  0.4506879  0.5432824  0.8793527    0.00000       Uiso       1.00
      C157          C  0.6600646  0.5139605  0.1346408    0.00000       Uiso       1.00
       O33          O  0.6346275  0.5022423  0.1308962    0.00000       Uiso       1.00
       O34          O  0.6747661  0.5013718  0.1350602    0.00000       Uiso       1.00
      H101          H  0.6622685  0.4836138  0.1321388    0.00000       Uiso       1.00
      C158          C  0.4607578  0.5141070  0.9350346    0.00000       Uiso       1.00
       O35          O  0.4644914  0.5023940  0.9604514    0.00000       Uiso       1.00
       O36          O  0.4603329  0.5015159  0.9203320    0.00000       Uiso       1.00
      H102          H  0.4632412  0.4837607  0.9328114    0.00000       Uiso       1.00
      C159          C  0.4005023  0.3425134  0.1065078    0.00000       Uiso       1.00
       O37          O  0.4104899  0.3679476  0.0948034    0.00000       Uiso       1.00
       O38          O  0.3736233  0.3278006  0.0939245    0.00000       Uiso       1.00
      H103          H  0.3654478  0.3402887  0.0761814    0.00000       Uiso       1.00
      C160          C  0.4891701  0.5422670  0.1947158    0.00000       Uiso       1.00
       O39          O  0.5008851  0.5385211  0.1847477    0.00000       Uiso       1.00
       O40          O  0.5017525  0.5426925  0.2215759    0.00000       Uiso       1.00
      H104          H  0.5195040  0.5397742  0.2297563    0.00000       Uiso       1.00
      C161          C  0.6287334  0.5446922  0.1303456    0.00000       Uiso       1.00
      C162          C  0.6147916  0.5154519  0.1395180    0.00000       Uiso       1.00
      C163          C  0.5852484  0.5042556  0.1313241    0.00000       Uiso       1.00
      C164          C  0.6122342  0.5624233  0.1131309    0.00000       Uiso       1.00
      C165          C  0.5828501  0.5513467  0.1054270    0.00000       Uiso       1.00
      C166          C  0.5685220  0.5220037  0.1138600    0.00000       Uiso       1.00
      H105          H  0.5213178  0.5464894  0.1383807    0.00000       Uiso       1.00
      H106          H  0.4993509  0.4313766  0.1584339    0.00000       Uiso       1.00
      H107          H  0.6267681  0.5011433  0.1530941    0.00000       Uiso       1.00
      C167          C  0.4583728  0.5379243  0.1369181    0.00000       Uiso       1.00
      C168          C  0.4875894  0.5471154  0.1429419    0.00000       Uiso       1.00
      C169          C  0.4986785  0.5389765  0.1326333    0.00000       Uiso       1.00
      C170          C  0.4405574  0.5207251  0.1198686    0.00000       Uiso       1.00
      C171          C  0.4515241  0.5130891  0.1091019    0.00000       Uiso       1.00
      C172          C  0.4808408  0.5215406  0.1155744    0.00000       Uiso       1.00
      H108          H  0.5759169  0.4816084  0.1388222    0.00000       Uiso       1.00
      H109          H  0.4563112  0.5460515  0.0192555    0.00000       Uiso       1.00
      H110          H  0.5019575  0.5606686  0.1556806    0.00000       Uiso       1.00
      C173          C  0.4583512  0.3738849  0.1371764    0.00000       Uiso       1.00
      C174          C  0.4522125  0.3877894  0.1079453    0.00000       Uiso       1.00
      C175          C  0.4624692  0.4173365  0.0967306    0.00000       Uiso       1.00
      C176          C  0.4755051  0.3904408  0.1548690    0.00000       Uiso       1.00
      C177          C  0.4862064  0.4198223  0.1437730    0.00000       Uiso       1.00
      C178          C  0.4795927  0.4341129  0.1144433    0.00000       Uiso       1.00
      H111          H  0.5025934  0.5034227  0.0236890    0.00000       Uiso       1.00
      H112          H  0.5713297  0.5660301  0.0922835    0.00000       Uiso       1.00
      H113          H  0.4394129  0.3757816  0.0936555    0.00000       Uiso       1.00
      C179          C  0.4649975  0.5446240  0.9663903    0.00000       Uiso       1.00
      C180          C  0.4820533  0.5274378  0.9828559    0.00000       Uiso       1.00
      C181          C  0.4895585  0.5165882  0.0122104    0.00000       Uiso       1.00
      C182          C  0.4558018  0.5506733  0.9803661    0.00000       Uiso       1.00
      C183          C  0.4638114  0.5402762  0.0098944    0.00000       Uiso       1.00
      C184          C  0.4811252  0.5231057  0.0265769    0.00000       Uiso       1.00
      H114          H  0.4566333  0.4266402  0.0740962    0.00000       Uiso       1.00
      H115          H  0.4367802  0.4999634  0.0960204    0.00000       Uiso       1.00
      H116          H  0.4904421  0.5228805  0.9732419    0.00000       Uiso       1.00
      C185          C  0.6259474  0.5945901  0.1012341    0.00000       Uiso       1.00
       O41          O  0.6111597  0.6097484  0.0862149    0.00000       Uiso       1.00
       O42          O  0.6544064  0.6062361  0.1073336    0.00000       Uiso       1.00
      H117          H  0.6594834  0.6263325  0.0983549    0.00000       Uiso       1.00
      C186          C  0.4366486  0.5689318  0.9633775    0.00000       Uiso       1.00
       O43          O  0.4286463  0.5741761  0.9757006    0.00000       Uiso       1.00
       O44          O  0.4285822  0.5792567  0.9347512    0.00000       Uiso       1.00
      H118          H  0.4167843  0.5901119  0.9274767    0.00000       Uiso       1.00
      C187          C  0.4821108  0.3768032  0.1870225    0.00000       Uiso       1.00
       O45          O  0.4971567  0.3916346  0.2021483    0.00000       Uiso       1.00
       O46          O  0.4713096  0.3483625  0.1986929    0.00000       Uiso       1.00
      H119          H  0.4773966  0.3433341  0.2187767    0.00000       Uiso       1.00
      C188          C  0.4084074  0.5087714  0.1134352    0.00000       Uiso       1.00
       O47          O  0.3931851  0.4937711  0.0984791    0.00000       Uiso       1.00
       O48          O  0.3968468  0.5148003  0.1242892    0.00000       Uiso       1.00
      H120          H  0.3767491  0.5057935  0.1183113    0.00000       Uiso       1.00
      C189          C  0.4800020  0.4791711  0.0701932    0.00000       Uiso       1.00
      C190          C  0.5249508  0.5211239  0.1150093    0.00000       Uiso       1.00
      C191          C  0.4914272  0.5119451  0.0593033    0.00000       Uiso       1.00
      C192          C  0.4815686  0.5226105  0.0716658    0.00000       Uiso       1.00
      H121          H  0.4581403  0.5155900  0.0636468    0.00000       Uiso       1.00
      H122          H  0.4895922  0.5460891  0.0644176    0.00000       Uiso       1.00
      C193          C  0.4906998  0.4668587  0.1030782    0.00000       Uiso       1.00
      C194          C  0.5234598  0.4777634  0.1134870    0.00000       Uiso       1.00
      H123          H  0.5306952  0.4695472  0.1054664    0.00000       Uiso       1.00
      H124          H  0.5315323  0.4694256  0.1368984    0.00000       Uiso       1.00
      C195          C  0.5357913  0.5106583  0.1035755    0.00000       Uiso       1.00
      H125          H  0.5333105  0.5445532  0.1079826    0.00000       Uiso       1.00
      C196          C  0.5242166  0.5219109  0.0708137    0.00000       Uiso       1.00
      H126          H  0.5321554  0.5453323  0.0625846    0.00000       Uiso       1.00
      H127          H  0.5324124  0.5146279  0.0628754    0.00000       Uiso       1.00
      C197          C  0.4807782  0.4784260  0.1143681    0.00000       Uiso       1.00
      H128          H  0.5331884  0.5131277  0.1384716    0.00000       Uiso       1.00
      C198          C  0.4920696  0.5112135  0.1044050    0.00000       Uiso       1.00
      H129          H  0.4880630  0.4705130  0.1377747    0.00000       Uiso       1.00
      H130          H  0.4573564  0.4701986  0.1071265    0.00000       Uiso       1.00
      H131          H  0.4565243  0.4719047  0.0620187    0.00000       Uiso       1.00
      H132          H  0.4869858  0.4711114  0.0618155    0.00000       Uiso       1.00
      C199          C  0.0113423  0.5821444  0.1449179    0.00000       Uiso       1.00
      C200          C  0.9968682  0.5551032  0.1428422    0.00000       Uiso       1.00
      C201          C  0.0092100  0.5427191  0.1386709    0.00000       Uiso       1.00
      C202          C  0.0383865  0.5966080  0.1428498    0.00000       Uiso       1.00
      C203          C  0.0507630  0.5842585  0.1386786    0.00000       Uiso       1.00
      C204          C  0.0369489  0.5565221  0.1375120    0.00000       Uiso       1.00
      H133          H  0.2555958  0.5435150  0.1893617    0.00000       Uiso       1.00
      H134          H  0.0505215  0.6186521  0.1445663    0.00000       Uiso       1.00
      H135          H  0.9748215  0.5429769  0.1445524    0.00000       Uiso       1.00
      C205          C  0.0407715  0.2841337  0.1744353    0.00000       Uiso       1.00
      C206          C  0.0428481  0.2987855  0.1888913    0.00000       Uiso       1.00
      C207          C  0.0470363  0.3276888  0.1765555    0.00000       Uiso       1.00
      C208          C  0.0428557  0.2987795  0.1474154    0.00000       Uiso       1.00
      C209          C  0.0470439  0.3276828  0.1350449    0.00000       Uiso       1.00
      C210          C  0.0482112  0.3427807  0.1488408    0.00000       Uiso       1.00
      H136          H  0.9966107  0.5224267  0.1357150    0.00000       Uiso       1.00
      H137          H  0.9964636  0.5225775  0.9303222    0.00000       Uiso       1.00
      H138          H  0.0411387  0.2871465  0.1352954    0.00000       Uiso       1.00
      H139          H  0.0411248  0.2871575  0.2109182    0.00000       Uiso       1.00
      C211          C  0.3098041  0.5527127  0.1746681    0.00000       Uiso       1.00
      C212          C  0.2951605  0.5506362  0.1476451    0.00000       Uiso       1.00
      C213          C  0.2662599  0.5464616  0.1352686    0.00000       Uiso       1.00
      C214          C  0.2951529  0.5506423  0.1891210    0.00000       Uiso       1.00
      C215          C  0.2662523  0.5464677  0.1767791    0.00000       Uiso       1.00
      C216          C  0.2511632  0.5453008  0.1490614    0.00000       Uiso       1.00
      H140          H  0.3067792  0.5523595  0.2111503    0.00000       Uiso       1.00
      H141          H  0.3067930  0.5523484  0.1355276    0.00000       Uiso       1.00
      C217          C  0.0112068  0.5822861  0.8761599    0.00000       Uiso       1.00
      C218          C  0.0382480  0.5967520  0.8908026    0.00000       Uiso       1.00
      C219          C  0.0506184  0.5844074  0.9196862    0.00000       Uiso       1.00
      C220          C  0.9967297  0.5552473  0.8907949    0.00000       Uiso       1.00
      C221          C  0.0090655  0.5428680  0.9196787    0.00000       Uiso       1.00
      C222          C  0.0368013  0.5566733  0.9347671    0.00000       Uiso       1.00
      H142          H  0.0500068  0.3383343  0.1147687    0.00000       Uiso       1.00
      H143          H  0.9746854  0.5431190  0.8791692    0.00000       Uiso       1.00
      H144          H  0.0503854  0.6187942  0.8791831    0.00000       Uiso       1.00
      C223          C  0.0796946  0.6022081  0.1344735    0.00000       Uiso       1.00
       O49          O  0.0914052  0.5922340  0.1307293    0.00000       Uiso       1.00
       O50          O  0.0922957  0.6290861  0.1349001    0.00000       Uiso       1.00
      H145          H  0.1100549  0.6372726  0.1319835    0.00000       Uiso       1.00
      C224          C  0.0795464  0.6023598  0.9348674    0.00000       Uiso       1.00
       O51          O  0.0912517  0.5923901  0.9602843    0.00000       Uiso       1.00
       O52          O  0.0921499  0.6292359  0.9201719    0.00000       Uiso       1.00
      H146          H  0.1099064  0.6374246  0.9326561    0.00000       Uiso       1.00
      C225          C  0.2510775  0.5422457  0.1063610    0.00000       Uiso       1.00
       O53          O  0.2256459  0.5384983  0.0946512    0.00000       Uiso       1.00
       O54          O  0.2657879  0.5426656  0.0937804    0.00000       Uiso       1.00
      H147          H  0.2533005  0.5397425  0.0760345    0.00000       Uiso       1.00
      C226          C  0.0512513  0.3428794  0.1944957    0.00000       Uiso       1.00
       O55          O  0.0550105  0.3683137  0.1845330    0.00000       Uiso       1.00
       O56          O  0.0508178  0.3281732  0.2213531    0.00000       Uiso       1.00
      H148          H  0.0537423  0.3406655  0.2295362    0.00000       Uiso       1.00
      C227          C  0.0489370  0.5444244  0.1301621    0.00000       Uiso       1.00
      C228          C  0.0781752  0.5505567  0.1393410    0.00000       Uiso       1.00
      C229          C  0.0893639  0.5404038  0.1311473    0.00000       Uiso       1.00
      C230          C  0.0311998  0.5274025  0.1129410    0.00000       Uiso       1.00
      C231          C  0.0422686  0.5167989  0.1052372    0.00000       Uiso       1.00
      C232          C  0.0716099  0.5233873  0.1136767    0.00000       Uiso       1.00
      H149          H  0.0470759  0.4271546  0.1381753    0.00000       Uiso       1.00
      H150          H  0.1622076  0.5002813  0.1582631    0.00000       Uiso       1.00
      H151          H  0.0924880  0.5632706  0.1529220    0.00000       Uiso       1.00
      C233          C  0.0556105  0.3742290  0.1367045    0.00000       Uiso       1.00
      C234          C  0.0464287  0.3882316  0.1427293    0.00000       Uiso       1.00
      C235          C  0.0545824  0.4177752  0.1324276    0.00000       Uiso       1.00
      C236          C  0.0728156  0.3906685  0.1196613    0.00000       Uiso       1.00
      C237          C  0.0804663  0.4200447  0.1089013    0.00000       Uiso       1.00
      C238          C  0.0720242  0.4344384  0.1153749    0.00000       Uiso       1.00
      H152          H  0.1120102  0.5462267  0.1386505    0.00000       Uiso       1.00
      H153          H  0.0475439  0.4817213  0.0190602    0.00000       Uiso       1.00
      H154          H  0.0328715  0.3763032  0.1554632    0.00000       Uiso       1.00
      C239          C  0.2197093  0.5380481  0.1370230    0.00000       Uiso       1.00
      C240          C  0.2058125  0.5472352  0.1077911    0.00000       Uiso       1.00
      C241          C  0.1762664  0.5391528  0.0965694    0.00000       Uiso       1.00
      C242          C  0.2031471  0.5209474  0.1547094    0.00000       Uiso       1.00
      C243          C  0.1737668  0.5133566  0.1436066    0.00000       Uiso       1.00
      C244          C  0.1594836  0.5217809  0.1142758    0.00000       Uiso       1.00
      H155          H  0.0902110  0.5662220  0.0235170    0.00000       Uiso       1.00
      H156          H  0.0275807  0.5037335  0.0920886    0.00000       Uiso       1.00
      H157          H  0.2178255  0.5607378  0.0935059    0.00000       Uiso       1.00
      C245          C  0.0490034  0.5447108  0.9662068    0.00000       Uiso       1.00
      C246          C  0.0661961  0.5624936  0.9826788    0.00000       Uiso       1.00
      C247          C  0.0770400  0.5514951  0.0120333    0.00000       Uiso       1.00
      C248          C  0.0429392  0.5154835  0.9801760    0.00000       Uiso       1.00
      C249          C  0.0533305  0.5043632  0.0097043    0.00000       Uiso       1.00
      C250          C  0.0705076  0.5221713  0.0263932    0.00000       Uiso       1.00
      H158          H  0.1669686  0.5466473  0.0739347    0.00000       Uiso       1.00
      H159          H  0.0935958  0.4315125  0.0958243    0.00000       Uiso       1.00
      H160          H  0.0707650  0.5850586  0.9730698    0.00000       Uiso       1.00
      C251          C  0.9990355  0.5208387  0.1010371    0.00000       Uiso       1.00
       O57          O  0.9838718  0.5059065  0.0860123    0.00000       Uiso       1.00
       O58          O  0.9873974  0.5315520  0.1071364    0.00000       Uiso       1.00
      H161          H  0.9673015  0.5255066  0.0981529    0.00000       Uiso       1.00
      C252          C  0.0246729  0.4950534  0.9631805    0.00000       Uiso       1.00
       O59          O  0.0194156  0.4694781  0.9754978    0.00000       Uiso       1.00
       O60          O  0.0143556  0.5052885  0.9345542    0.00000       Uiso       1.00
      H162          H  0.0034940  0.4899052  0.9272748    0.00000       Uiso       1.00
      C253          C  0.2167757  0.5090374  0.1868633    0.00000       Uiso       1.00
       O61          O  0.2019388  0.4941207  0.2019836    0.00000       Uiso       1.00
       O62          O  0.2452144  0.5150127  0.1985400    0.00000       Uiso       1.00
      H163          H  0.2502369  0.5060436  0.2186230    0.00000       Uiso       1.00
      C254          C  0.0847596  0.3769053  0.1132275    0.00000       Uiso       1.00
       O63          O  0.0997652  0.3916447  0.0982769    0.00000       Uiso       1.00
       O64          O  0.0787163  0.3484555  0.1240752    0.00000       Uiso       1.00
      H164          H  0.0877186  0.3433432  0.1180979    0.00000       Uiso       1.00
      C255          C  0.1144335  0.5213740  0.0700174    0.00000       Uiso       1.00
      C256          C  0.0724655  0.4795387  0.1148182    0.00000       Uiso       1.00
      C257          C  0.0816598  0.5109073  0.0591196    0.00000       Uiso       1.00
      C258          C  0.0709784  0.4780129  0.0714741    0.00000       Uiso       1.00
      H165          H  0.0779931  0.4696239  0.0634549    0.00000       Uiso       1.00
      H166          H  0.0474996  0.4698004  0.0642201    0.00000       Uiso       1.00
      C259          C  0.1267383  0.5114996  0.1029029    0.00000       Uiso       1.00
      C260          C  0.1158418  0.5229462  0.1133118    0.00000       Uiso       1.00
      H167          H  0.1240693  0.5464242  0.1052971    0.00000       Uiso       1.00
      H168          H  0.1241741  0.5159453  0.1367234    0.00000       Uiso       1.00
      C261          C  0.0829470  0.5122865  0.1033923    0.00000       Uiso       1.00
      H169          H  0.0490361  0.4714901  0.1077857    0.00000       Uiso       1.00
      C262          C  0.0717021  0.5222207  0.0706303    0.00000       Uiso       1.00
      H170          H  0.0482810  0.5149618  0.0623955    0.00000       Uiso       1.00
      H171          H  0.0789966  0.5456434  0.0626976    0.00000       Uiso       1.00
      C263          C  0.1151551  0.4787127  0.1141846    0.00000       Uiso       1.00
      H172          H  0.0804561  0.4723101  0.1382807    0.00000       Uiso       1.00
      C264          C  0.0823673  0.4671716  0.1042135    0.00000       Uiso       1.00
      H173          H  0.1230620  0.4705037  0.1375912    0.00000       Uiso       1.00
      H174          H  0.1233766  0.4707598  0.1069431    0.00000       Uiso       1.00
      H175          H  0.1216943  0.5133371  0.0618428    0.00000       Uiso       1.00
      H176          H  0.1225046  0.5448011  0.0616455    0.00000       Uiso       1.00
      C265          C  0.0117298  0.1435492  0.5839012    0.00000       Uiso       1.00
      C266          C  0.0387625  0.1414802  0.5983542    0.00000       Uiso       1.00
      C267          C  0.0511447  0.1373071  0.5860122    0.00000       Uiso       1.00
      C268          C  0.9972730  0.1414727  0.5568782    0.00000       Uiso       1.00
      C269          C  0.0096205  0.1372996  0.5445017    0.00000       Uiso       1.00
      C270          C  0.0373491  0.1361403  0.5582945    0.00000       Uiso       1.00
      H177          H  0.0504360  0.1879953  0.3397527    0.00000       Uiso       1.00
      H178          H  0.9752359  0.1431837  0.5447606    0.00000       Uiso       1.00
      H179          H  0.0508834  0.1431974  0.6203834    0.00000       Uiso       1.00
      C271          C  0.3097222  0.1731470  0.5543346    0.00000       Uiso       1.00
      C272          C  0.2950825  0.1876091  0.5522666    0.00000       Uiso       1.00
      C273          C  0.2661763  0.1752581  0.5480953    0.00000       Uiso       1.00
      C274          C  0.2950613  0.1461058  0.5522590    0.00000       Uiso       1.00
      C275          C  0.2661550  0.1337202  0.5480877    0.00000       Uiso       1.00
      C276          C  0.2510687  0.1475217  0.5469287    0.00000       Uiso       1.00
      H180          H  0.0714295  0.1343555  0.5985948    0.00000       Uiso       1.00
      H181          H  0.0711420  0.9288275  0.5987406    0.00000       Uiso       1.00
      H182          H  0.3066842  0.1339806  0.5539692    0.00000       Uiso       1.00
      H183          H  0.3067229  0.2096532  0.5539830    0.00000       Uiso       1.00
      C277          C  0.0412418  0.1732821  0.2855768    0.00000       Uiso       1.00
      C278          C  0.0432970  0.1462438  0.3002118    0.00000       Uiso       1.00
      C279          C  0.0474565  0.1338643  0.3290955    0.00000       Uiso       1.00
      C280          C  0.0433182  0.1877471  0.3002194    0.00000       Uiso       1.00
      C281          C  0.0474778  0.1754022  0.3291031    0.00000       Uiso       1.00
      C282          C  0.0486229  0.1476686  0.3441840    0.00000       Uiso       1.00
      H184          H  0.0416183  0.2097888  0.2886000    0.00000       Uiso       1.00
      H185          H  0.0415796  0.1341162  0.2885861    0.00000       Uiso       1.00
      C283          C  0.0114099  0.8746144  0.5840353    0.00000       Uiso       1.00
      C284          C  0.9969617  0.8892596  0.5570154    0.00000       Uiso       1.00
      C285          C  0.0093261  0.9181632  0.5446450    0.00000       Uiso       1.00
      C286          C  0.0384511  0.8892671  0.5984914    0.00000       Uiso       1.00
      C287          C  0.0508502  0.9181707  0.5861555    0.00000       Uiso       1.00
      C288          C  0.0370630  0.9332621  0.5584408    0.00000       Uiso       1.00
      H186          H  0.2554925  0.1134278  0.5451318    0.00000       Uiso       1.00
      H187          H  0.0505652  0.8776395  0.6205182    0.00000       Uiso       1.00
      H188          H  0.9749178  0.8776259  0.5448954    0.00000       Uiso       1.00
      C289          C  0.9916772  0.1330836  0.5155941    0.00000       Uiso       1.00
       O65          O  0.0016498  0.1293374  0.5038843    0.00000       Uiso       1.00
       O66          O  0.9648061  0.1335028  0.5030132    0.00000       Uiso       1.00
      H189          H  0.9566228  0.1305799  0.4852672    0.00000       Uiso       1.00
      C290          C  0.9913927  0.9333462  0.5157409    0.00000       Uiso       1.00
       O67          O  0.0013802  0.9587804  0.5040365    0.00000       Uiso       1.00
       O68          O  0.9645137  0.9186333  0.5031576    0.00000       Uiso       1.00
      H190          H  0.9563383  0.9311214  0.4854145    0.00000       Uiso       1.00
      C291          C  0.0516495  0.1049407  0.3442680    0.00000       Uiso       1.00
       O69          O  0.0553831  0.0932278  0.3696847    0.00000       Uiso       1.00
       O70          O  0.0512246  0.0923497  0.3295653    0.00000       Uiso       1.00
      H191          H  0.0541329  0.0745945  0.3420447    0.00000       Uiso       1.00
      C292          C  0.2510007  0.1932062  0.5438902    0.00000       Uiso       1.00
       O71          O  0.2255644  0.1832308  0.5401460    0.00000       Uiso       1.00
       O72          O  0.2657222  0.2200846  0.5443161    0.00000       Uiso       1.00
      H192          H  0.2532378  0.2282700  0.5413994    0.00000       Uiso       1.00
      C293          C  0.0494428  0.1287865  0.5463064    0.00000       Uiso       1.00
      C294          C  0.0433238  0.1379658  0.5170863    0.00000       Uiso       1.00
      C295          C  0.0534721  0.1297673  0.5058981    0.00000       Uiso       1.00
      C296          C  0.0664469  0.1115603  0.5640258    0.00000       Uiso       1.00
      C297          C  0.0770464  0.1038521  0.5529573    0.00000       Uiso       1.00
      C298          C  0.0704708  0.1122915  0.5236343    0.00000       Uiso       1.00
      H193          H  0.1667000  0.1368309  0.5481066    0.00000       Uiso       1.00
      H194          H  0.0936225  0.1568992  0.4330711    0.00000       Uiso       1.00
      H195          H  0.0306237  0.1515509  0.5027872    0.00000       Uiso       1.00
      C299          C  0.2196186  0.1353695  0.5395493    0.00000       Uiso       1.00
      C300          C  0.2056201  0.1413965  0.5487335    0.00000       Uiso       1.00
      C301          C  0.1760760  0.1310803  0.5405992    0.00000       Uiso       1.00
      C302          C  0.2031742  0.1183089  0.5223614    0.00000       Uiso       1.00
      C303          C  0.1737969  0.1075343  0.5147296    0.00000       Uiso       1.00
      C304          C  0.1594077  0.1140103  0.5231748    0.00000       Uiso       1.00
      H196          H  0.0476600  0.1372709  0.4832664    0.00000       Uiso       1.00
      H197          H  0.1120632  0.0176253  0.5476667    0.00000       Uiso       1.00
      H198          H  0.2175522  0.1541435  0.5622777    0.00000       Uiso       1.00
      C305          C  0.0558598  0.1356284  0.3756180    0.00000       Uiso       1.00
      C306          C  0.0466519  0.1063773  0.3895124    0.00000       Uiso       1.00
      C307          C  0.0547192  0.0951543  0.4190392    0.00000       Uiso       1.00
      C308          C  0.0729660  0.1533327  0.3921630    0.00000       Uiso       1.00
      C309          C  0.0805420  0.1422285  0.4215244    0.00000       Uiso       1.00
      C310          C  0.0720965  0.1128786  0.4358047    0.00000       Uiso       1.00
      H199          H  0.0275872  0.0220603  0.5050645    0.00000       Uiso       1.00
      H200          H  0.0900979  0.0906999  0.5676309    0.00000       Uiso       1.00
      H201          H  0.0331444  0.0920780  0.3775124    0.00000       Uiso       1.00
      C311          C  0.0490471  0.9647233  0.5462389    0.00000       Uiso       1.00
      C312          C  0.0312815  0.9811997  0.5290641    0.00000       Uiso       1.00
      C313          C  0.0423015  0.0105742  0.5182213    0.00000       Uiso       1.00
      C314          C  0.0782779  0.9787092  0.5522851    0.00000       Uiso       1.00
      C315          C  0.0894198  0.0082574  0.5418946    0.00000       Uiso       1.00
      C316          C  0.0716290  0.0249509  0.5247353    0.00000       Uiso       1.00
      H202          H  0.0472089  0.0725043  0.4283361    0.00000       Uiso       1.00
      H203          H  0.1623250  0.0944443  0.5016126    0.00000       Uiso       1.00
      H204          H  0.0087145  0.9715789  0.5245091    0.00000       Uiso       1.00
      C317          C  0.0729949  0.0996547  0.5961705    0.00000       Uiso       1.00
       O73          O  0.0879118  0.0846255  0.6113186    0.00000       Uiso       1.00
       O74          O  0.0622847  0.1057573  0.6078081    0.00000       Uiso       1.00
      H205          H  0.0683189  0.0967722  0.6278906    0.00000       Uiso       1.00
      C318          C  0.0986899  0.9617094  0.5705316    0.00000       Uiso       1.00
       O75          O  0.1242683  0.9740413  0.5757732    0.00000       Uiso       1.00
       O76          O  0.0884352  0.9330635  0.5808488    0.00000       Uiso       1.00
      H206          H  0.1038091  0.9257843  0.5916970    0.00000       Uiso       1.00
      C319          C  0.0848983  0.1855084  0.3785354    0.00000       Uiso       1.00
       O77          O  0.0998196  0.2006441  0.3933570    0.00000       Uiso       1.00
       O78          O  0.0789379  0.1971873  0.3501142    0.00000       Uiso       1.00
      H207          H  0.0879199  0.2172848  0.3450897    0.00000       Uiso       1.00
      C320          C  0.2169337  0.1118721  0.5104164    0.00000       Uiso       1.00
       O79          O  0.2021899  0.0969063  0.4954260    0.00000       Uiso       1.00
       O80          O  0.2453851  0.1227341  0.5164421    0.00000       Uiso       1.00
      H208          H  0.2504947  0.1167527  0.5074418    0.00000       Uiso       1.00
      C321          C  0.0724644  0.0685977  0.4808314    0.00000       Uiso       1.00
      C322          C  0.1143139  0.1134432  0.5227568    0.00000       Uiso       1.00
      C323          C  0.0829153  0.0576998  0.5135831    0.00000       Uiso       1.00
      C324          C  0.1158106  0.0700712  0.5242422    0.00000       Uiso       1.00
      H209          H  0.1241947  0.0620474  0.5172269    0.00000       Uiso       1.00
      H210          H  0.1240121  0.0628175  0.5477048    0.00000       Uiso       1.00
      C325          C  0.0823617  0.1015052  0.4685280    0.00000       Uiso       1.00
      C326          C  0.0709212  0.1119200  0.4794248    0.00000       Uiso       1.00
      H211          H  0.0474432  0.1038937  0.4712135    0.00000       Uiso       1.00
      H212          H  0.0779383  0.1353474  0.4710931    0.00000       Uiso       1.00
      C327          C  0.0815657  0.1020011  0.5122973    0.00000       Uiso       1.00
      H213          H  0.1223515  0.1064113  0.5461700    0.00000       Uiso       1.00
      C328          C  0.0716089  0.0692170  0.5235416    0.00000       Uiso       1.00
      H214          H  0.0788562  0.0609818  0.5469469    0.00000       Uiso       1.00
      H215          H  0.0481860  0.0612729  0.5162627    0.00000       Uiso       1.00
      C329          C  0.1151486  0.1128032  0.4800885    0.00000       Uiso       1.00
      H216          H  0.1215585  0.1369216  0.5147665    0.00000       Uiso       1.00
      C330          C  0.1266742  0.1028328  0.5128536    0.00000       Uiso       1.00
      H217          H  0.1233735  0.1362259  0.4721814    0.00000       Uiso       1.00
      H218          H  0.1230974  0.1055575  0.4718671    0.00000       Uiso       1.00
      H219          H  0.0804963  0.0604184  0.4735703    0.00000       Uiso       1.00
      H220          H  0.0490371  0.0602139  0.4727765    0.00000       Uiso       1.00
      C331          C  0.0114905  0.8752446  0.1449734    0.00000       Uiso       1.00
      C332          C  0.0385349  0.8898948  0.1429054    0.00000       Uiso       1.00
      C333          C  0.0509325  0.9187997  0.1387417    0.00000       Uiso       1.00
      C334          C  0.9970378  0.8898934  0.1429054    0.00000       Uiso       1.00
      C335          C  0.0094008  0.9187982  0.1387417    0.00000       Uiso       1.00
      C336          C  0.0371403  0.9338949  0.1375829    0.00000       Uiso       1.00
      H221          H  0.0502436  0.1137343  0.1894681    0.00000       Uiso       1.00
      H222          H  0.9749914  0.8782617  0.1446157    0.00000       Uiso       1.00
      H223          H  0.0506526  0.8782644  0.1446157    0.00000       Uiso       1.00
      C337          C  0.3096099  0.1732754  0.1746002    0.00000       Uiso       1.00
      C338          C  0.2949460  0.1462365  0.1890486    0.00000       Uiso       1.00
      C339          C  0.2660412  0.1338498  0.1767051    0.00000       Uiso       1.00
      C340          C  0.2949748  0.1877338  0.1475802    0.00000       Uiso       1.00
      C341          C  0.2660700  0.1753816  0.1352022    0.00000       Uiso       1.00
      C342          C  0.2509597  0.1476474  0.1489902    0.00000       Uiso       1.00
      H224          H  0.0712271  0.9294543  0.1357914    0.00000       Uiso       1.00
      H225          H  0.0711870  0.1345857  0.9304362    0.00000       Uiso       1.00
      H226          H  0.3066177  0.2097759  0.1354664    0.00000       Uiso       1.00
      H227          H  0.3065652  0.1341143  0.2110753    0.00000       Uiso       1.00
      C343          C  0.0410803  0.1734478  0.1747837    0.00000       Uiso       1.00
      C344          C  0.0431643  0.1879068  0.1477637    0.00000       Uiso       1.00
      C345          C  0.0473314  0.1755558  0.1353857    0.00000       Uiso       1.00
      C346          C  0.0431355  0.1464095  0.1892321    0.00000       Uiso       1.00
      C347          C  0.0473026  0.1340240  0.1768886    0.00000       Uiso       1.00
      C348          C  0.0484768  0.1478221  0.1491737    0.00000       Uiso       1.00
      H228          H  0.0414120  0.1342869  0.2112588    0.00000       Uiso       1.00
      H229          H  0.0414645  0.2099485  0.1356499    0.00000       Uiso       1.00
      C349          C  0.0114945  0.1437737  0.8762647    0.00000       Uiso       1.00
      C350          C  0.9970301  0.1417032  0.8909043    0.00000       Uiso       1.00
      C351          C  0.0093701  0.1375361  0.9197895    0.00000       Uiso       1.00
      C352          C  0.0385272  0.1417047  0.8909043    0.00000       Uiso       1.00
      C353          C  0.0509019  0.1375375  0.9197895    0.00000       Uiso       1.00
      C354          C  0.0370984  0.1363770  0.9348752    0.00000       Uiso       1.00
      H230          H  0.2554275  0.1879698  0.1149263    0.00000       Uiso       1.00
      H231          H  0.0506542  0.1434170  0.8792810    0.00000       Uiso       1.00
      H232          H  0.9749929  0.1434143  0.8792810    0.00000       Uiso       1.00
      C355          C  0.9914628  0.9339848  0.1345361    0.00000       Uiso       1.00
       O81          O  0.0014489  0.9594201  0.1307984    0.00000       Uiso       1.00
       O82          O  0.9645817  0.9192736  0.1349551    0.00000       Uiso       1.00
      H233          H  0.9564036  0.9317639  0.1320392    0.00000       Uiso       1.00
      C356          C  0.9914187  0.1333265  0.9349665    0.00000       Uiso       1.00
       O83          O  0.0013845  0.1295857  0.9603847    0.00000       Uiso       1.00
       O84          O  0.9645478  0.1337446  0.9202662    0.00000       Uiso       1.00
      H234          H  0.9563590  0.1308260  0.9327484    0.00000       Uiso       1.00
      C357          C  0.0515565  0.1935011  0.1064822    0.00000       Uiso       1.00
       O85          O  0.0552978  0.1835255  0.0947713    0.00000       Uiso       1.00
       O86          O  0.0511514  0.2203770  0.0939065    0.00000       Uiso       1.00
      H235          H  0.0540785  0.2285608  0.0761626    0.00000       Uiso       1.00
      C358          C  0.2508376  0.1049260  0.1946373    0.00000       Uiso       1.00
       O87          O  0.2254016  0.0932068  0.1846677    0.00000       Uiso       1.00
       O88          O  0.2655341  0.0923415  0.2214950    0.00000       Uiso       1.00
      H236          H  0.2530344  0.0745851  0.2296726    0.00000       Uiso       1.00
      C359          C  0.0492530  0.9653385  0.1302411    0.00000       Uiso       1.00
      C360          C  0.0431294  0.9792669  0.1394214    0.00000       Uiso       1.00
      C361          C  0.0532969  0.0088095  0.1312349    0.00000       Uiso       1.00
      C362          C  0.0662808  0.9818504  0.1130261    0.00000       Uiso       1.00
      C363          C  0.0768990  0.0112340  0.1053296    0.00000       Uiso       1.00
      C364          C  0.0703196  0.0255487  0.1137706    0.00000       Uiso       1.00
      H237          H  0.1665604  0.0727748  0.1382955    0.00000       Uiso       1.00
      H238          H  0.0934590  0.0946828  0.1583739    0.00000       Uiso       1.00
      H239          H  0.0304112  0.9672803  0.1529978    0.00000       Uiso       1.00
      C365          C  0.2195106  0.1357267  0.1368460    0.00000       Uiso       1.00
      C366          C  0.2054947  0.1065098  0.1428628    0.00000       Uiso       1.00
      C367          C  0.1759505  0.0954142  0.1325536    0.00000       Uiso       1.00
      C368          C  0.2030840  0.1535360  0.1198030    0.00000       Uiso       1.00
      C369          C  0.1737072  0.1425631  0.1090356    0.00000       Uiso       1.00
      C370          C  0.1593001  0.1132457  0.1155012    0.00000       Uiso       1.00
      H240          H  0.0474803  0.0181303  0.1387389    0.00000       Uiso       1.00
      H241          H  0.1120395  0.1377934  0.0191823    0.00000       Uiso       1.00
      H242          H  0.2174130  0.0921464  0.1555963    0.00000       Uiso       1.00
      C371          C  0.0557216  0.1356585  0.1371344    0.00000       Uiso       1.00
      C372          C  0.0465397  0.1418061  0.1079019    0.00000       Uiso       1.00
      C373          C  0.0546150  0.1315637  0.0966799    0.00000       Uiso       1.00
      C374          C  0.0728098  0.1185106  0.1548208    0.00000       Uiso       1.00
      C375          C  0.0803934  0.1078233  0.1437175    0.00000       Uiso       1.00
      C376          C  0.0719743  0.1144462  0.1143863    0.00000       Uiso       1.00
      H243          H  0.0275290  0.0914794  0.0236151    0.00000       Uiso       1.00
      H244          H  0.0899683  0.0227645  0.0921856    0.00000       Uiso       1.00
      H245          H  0.0330465  0.1546016  0.0936166    0.00000       Uiso       1.00
      C377          C  0.0490547  0.1291026  0.9663157    0.00000       Uiso       1.00
      C378          C  0.0312658  0.1120342  0.9827813    0.00000       Uiso       1.00
      C379          C  0.0422603  0.1045239  0.0121365    0.00000       Uiso       1.00
      C380          C  0.0782816  0.1383034  0.9802921    0.00000       Uiso       1.00
      C381          C  0.0893977  0.1302887  0.0098209    0.00000       Uiso       1.00
      C382          C  0.0715834  0.1129623  0.0265034    0.00000       Uiso       1.00
      H246          H  0.0471251  0.1374058  0.0740448    0.00000       Uiso       1.00
      H247          H  0.1622496  0.1573026  0.0959592    0.00000       Uiso       1.00
      H248          H  0.0087003  0.1036415  0.9731666    0.00000       Uiso       1.00
      C383          C  0.0728360  0.9681524  0.1011209    0.00000       Uiso       1.00
       O89          O  0.0877736  0.9829512  0.0861016    0.00000       Uiso       1.00
       O90          O  0.0621091  0.9396945  0.1072130    0.00000       Uiso       1.00
      H249          H  0.0681506  0.9346277  0.0982297    0.00000       Uiso       1.00
      C384          C  0.0987186  0.1574700  0.9633038    0.00000       Uiso       1.00
       O91          O  0.1242935  0.1654766  0.9756273    0.00000       Uiso       1.00
       O92          O  0.0884898  0.1655436  0.9346770    0.00000       Uiso       1.00
      H250          H  0.1038767  0.1773496  0.9274027    0.00000       Uiso       1.00
      C385          C  0.0847138  0.1118961  0.1869756    0.00000       Uiso       1.00
       O93          O  0.0996196  0.0968555  0.2020959    0.00000       Uiso       1.00
       O94          O  0.0787456  0.1226837  0.1986532    0.00000       Uiso       1.00
      H251          H  0.0877096  0.1165928  0.2187368    0.00000       Uiso       1.00
      C386          C  0.2168623  0.1856854  0.1133776    0.00000       Uiso       1.00
       O95          O  0.2021339  0.2009023  0.0984271    0.00000       Uiso       1.00
       O96          O  0.2453132  0.1972514  0.1242327    0.00000       Uiso       1.00
      H252          H  0.2504355  0.2173478  0.1182600    0.00000       Uiso       1.00
      C387          C  0.0723810  0.1140616  0.0701279    0.00000       Uiso       1.00
      C388          C  0.1141840  0.0691274  0.1149281    0.00000       Uiso       1.00
      C389          C  0.0828396  0.1026522  0.0592299    0.00000       Uiso       1.00
      C390          C  0.1157333  0.1125184  0.0715923    0.00000       Uiso       1.00
      H253          H  0.1241336  0.1359472  0.0635789    0.00000       Uiso       1.00
      H254          H  0.1239400  0.1045063  0.0643383    0.00000       Uiso       1.00
      C391          C  0.0822477  0.1033550  0.1030132    0.00000       Uiso       1.00
      C392          C  0.0707852  0.0705949  0.1134140    0.00000       Uiso       1.00
      H255          H  0.0473076  0.0633537  0.1053936    0.00000       Uiso       1.00
      H256          H  0.0777804  0.0625163  0.1368254    0.00000       Uiso       1.00
      C393          C  0.0814363  0.0582791  0.1034942    0.00000       Uiso       1.00
      H257          H  0.1222265  0.0607789  0.1078956    0.00000       Uiso       1.00
      C394          C  0.0715103  0.0698623  0.0707325    0.00000       Uiso       1.00
      H258          H  0.0787635  0.0619348  0.0624976    0.00000       Uiso       1.00
      H259          H  0.0480874  0.0616610  0.0627940    0.00000       Uiso       1.00
      C395          C  0.1150340  0.1132847  0.1143028    0.00000       Uiso       1.00
      H260          H  0.1214067  0.0608838  0.1383904    0.00000       Uiso       1.00
      C396          C  0.1265667  0.1020092  0.1043317    0.00000       Uiso       1.00
      H261          H  0.1232374  0.1059942  0.1377095    0.00000       Uiso       1.00
      H262          H  0.1229982  0.1367064  0.1070671    0.00000       Uiso       1.00
      H263          H  0.0804293  0.1375396  0.0619591    0.00000       Uiso       1.00
      H264          H  0.0489544  0.1070721  0.0617504    0.00000       Uiso       1.00
      C397          C  0.4452468  0.6052157  0.6302142    0.00000       Uiso       1.00
      C398          C  0.4437949  0.6039485  0.6542110    0.00000       Uiso       1.00
      C399          C  0.4409658  0.5788611  0.6772385    0.00000       Uiso       1.00
      C400          C  0.4409737  0.5783627  0.7016439    0.00000       Uiso       1.00
      C401          C  0.4454136  0.6033537  0.7042086    0.00000       Uiso       1.00
      C402          C  0.4486493  0.6284966  0.6808947    0.00000       Uiso       1.00
      C403          C  0.4458862  0.6288776  0.6551564    0.00000       Uiso       1.00
       O97          O  0.4446297  0.5830972  0.6263595    0.00000       Uiso       1.00
      H265          H  0.4387210  0.5595970  0.6762087    0.00000       Uiso       1.00
      H266          H  0.4377804  0.5582733  0.7184373    0.00000       Uiso       1.00
      H267          H  0.4551442  0.6482778  0.6833182    0.00000       Uiso       1.00
      C404          C  0.4452767  0.8007027  0.6069896    0.00000       Uiso       1.00
      C405          C  0.4438009  0.7765057  0.6057122    0.00000       Uiso       1.00
      C406          C  0.4410070  0.7757323  0.5806435    0.00000       Uiso       1.00
      C407          C  0.4410158  0.7518252  0.5801449    0.00000       Uiso       1.00
      C408          C  0.4454287  0.7287083  0.6051171    0.00000       Uiso       1.00
      C409          C  0.4486155  0.7301167  0.6302378    0.00000       Uiso       1.00
      C410          C  0.4458473  0.7527169  0.6306171    0.00000       Uiso       1.00
       O98          O  0.4447255  0.8260749  0.5848980    0.00000       Uiso       1.00
      H268          H  0.4388032  0.7937868  0.5613970    0.00000       Uiso       1.00
      H269          H  0.4378536  0.7519300  0.5600697    0.00000       Uiso       1.00
      H270          H  0.4550869  0.7144128  0.6500077    0.00000       Uiso       1.00
      C411          C  0.4451784  0.6284779  0.8023385    0.00000       Uiso       1.00
      C412          C  0.4437097  0.6524692  0.7781581    0.00000       Uiso       1.00
      C413          C  0.4408843  0.6755033  0.7773890    0.00000       Uiso       1.00
      C414          C  0.4408868  0.6999147  0.7534928    0.00000       Uiso       1.00
      C415          C  0.4453177  0.7024764  0.7303811    0.00000       Uiso       1.00
      C416          C  0.4485342  0.6791460  0.7317832    0.00000       Uiso       1.00
      C417          C  0.4457850  0.6534034  0.7543814    0.00000       Uiso       1.00
       O99          O  0.4445703  0.6246367  0.8276841    0.00000       Uiso       1.00
      H271          H  0.4386607  0.6744740  0.7954447    0.00000       Uiso       1.00
      H272          H  0.4377089  0.7167188  0.7535997    0.00000       Uiso       1.00
      H273          H  0.4550135  0.6815633  0.7160718    0.00000       Uiso       1.00
      C418          C  0.4488255  0.6062794  0.8034833    0.00000       Uiso       1.00
      C419          C  0.4494998  0.6057453  0.7799743    0.00000       Uiso       1.00
      C420          C  0.4525510  0.5826929  0.7810377    0.00000       Uiso       1.00
      C421          C  0.4521032  0.5820888  0.7569647    0.00000       Uiso       1.00
      C422          C  0.4469615  0.6038200  0.7308010    0.00000       Uiso       1.00
      C423          C  0.4433027  0.6265419  0.7300740    0.00000       Uiso       1.00
      C424          C  0.4465827  0.6289659  0.7546237    0.00000       Uiso       1.00
      O100          O  0.4508955  0.5851271  0.8296650    0.00000       Uiso       1.00
      H274          H  0.4553952  0.5651605  0.8006843    0.00000       Uiso       1.00
      H275          H  0.4555908  0.5643208  0.7591643    0.00000       Uiso       1.00
      H276          H  0.4362278  0.6416627  0.7100322    0.00000       Uiso       1.00
      C425          C  0.4488831  0.8018389  0.6316726    0.00000       Uiso       1.00
      C426          C  0.4495106  0.7783083  0.6563690    0.00000       Uiso       1.00
      C427          C  0.4525090  0.7793567  0.6813880    0.00000       Uiso       1.00
      C428          C  0.4520216  0.7552635  0.7055950    0.00000       Uiso       1.00
      C429          C  0.4468980  0.7290904  0.7048889    0.00000       Uiso       1.00
      C430          C  0.4432884  0.7283795  0.6792544    0.00000       Uiso       1.00
      C431          C  0.4466028  0.7529503  0.6555847    0.00000       Uiso       1.00
      O101          O  0.4509742  0.8280376  0.6287180    0.00000       Uiso       1.00
      H277          H  0.4553557  0.7990120  0.6821231    0.00000       Uiso       1.00
      H278          H  0.4554741  0.7574612  0.7246339    0.00000       Uiso       1.00
      H279          H  0.4362130  0.7083326  0.6770850    0.00000       Uiso       1.00
      C432          C  0.4488765  0.6299155  0.6080148    0.00000       Uiso       1.00
      C433          C  0.4495520  0.6546339  0.6074933    0.00000       Uiso       1.00
      C434          C  0.4525633  0.6796606  0.5844325    0.00000       Uiso       1.00
      C435          C  0.4521012  0.7038885  0.5838298    0.00000       Uiso       1.00
      C436          C  0.4470012  0.7031972  0.6055866    0.00000       Uiso       1.00
      C437          C  0.4433901  0.6775539  0.6283242    0.00000       Uiso       1.00
      C438          C  0.4466683  0.6538615  0.6307276    0.00000       Uiso       1.00
      O102          O  0.4509251  0.6269494  0.5868506    0.00000       Uiso       1.00
      H280          H  0.4553925  0.6803792  0.5668923    0.00000       Uiso       1.00
      H281          H  0.4555508  0.7229287  0.5660425    0.00000       Uiso       1.00
      H282          H  0.4363347  0.6753937  0.6434711    0.00000       Uiso       1.00
        B1          B  0.4482426  0.5971473  0.5987445    0.00000       Uiso       1.00
        B2          B  0.4483472  0.8432704  0.5989429    0.00000       Uiso       1.00
        B3          B  0.4482026  0.5970272  0.8448735    0.00000       Uiso       1.00
      C439          C  0.7929806  0.6283143  0.6067786    0.00000       Uiso       1.00
      C440          C  0.8171788  0.6523279  0.6055132    0.00000       Uiso       1.00
      C441          C  0.8179641  0.6753715  0.5804433    0.00000       Uiso       1.00
      C442          C  0.8418803  0.6997939  0.5799462    0.00000       Uiso       1.00
      C443          C  0.8649974  0.7023601  0.6049206    0.00000       Uiso       1.00
      C444          C  0.8635744  0.6790298  0.6300460    0.00000       Uiso       1.00
      C445          C  0.8409625  0.6532738  0.6304259    0.00000       Uiso       1.00
      O103          O  0.7676218  0.6244570  0.5846745    0.00000       Uiso       1.00
      H283          H  0.7999144  0.6743411  0.5611919    0.00000       Uiso       1.00
      H284          H  0.8417893  0.7165990  0.5598708    0.00000       Uiso       1.00
      H285          H  0.8792856  0.6814548  0.6498140    0.00000       Uiso       1.00
      C446          C  0.9651963  0.6050730  0.8021358    0.00000       Uiso       1.00
      C447          C  0.9411970  0.6037948  0.7779549    0.00000       Uiso       1.00
      C448          C  0.9181315  0.5787089  0.7771811    0.00000       Uiso       1.00
      C449          C  0.8937167  0.5782100  0.7532898    0.00000       Uiso       1.00
      C450          C  0.8911763  0.6031995  0.7301887    0.00000       Uiso       1.00
      C451          C  0.9145359  0.6283374  0.7315972    0.00000       Uiso       1.00
      C452          C  0.9402840  0.6287171  0.7541826    0.00000       Uiso       1.00
      O104          O  0.9690128  0.5829660  0.8274906    0.00000       Uiso       1.00
      H286          H  0.9191298  0.5594490  0.7952230    0.00000       Uiso       1.00
      H287          H  0.8768948  0.5581210  0.7533938    0.00000       Uiso       1.00
      H288          H  0.9121441  0.6481209  0.7159042    0.00000       Uiso       1.00
      C453          C  0.9885550  0.8005582  0.6300320    0.00000       Uiso       1.00
      C454          C  0.9898177  0.7763609  0.6540066    0.00000       Uiso       1.00
      C455          C  0.0149075  0.7755914  0.6770256    0.00000       Uiso       1.00
      C456          C  0.0154035  0.7516785  0.7014200    0.00000       Uiso       1.00
      C457          C  0.9904065  0.7285505  0.7039791    0.00000       Uiso       1.00
      C458          C  0.9652626  0.7299535  0.6806639    0.00000       Uiso       1.00
      C459          C  0.9648833  0.7525675  0.6549392    0.00000       Uiso       1.00
      O105          O  0.0106849  0.8259214  0.6261942    0.00000       Uiso       1.00
      H289          H  0.0341702  0.7936596  0.6759978    0.00000       Uiso       1.00
      H290          H  0.0354927  0.7517855  0.7182132    0.00000       Uiso       1.00
      H291          H  0.9454780  0.7142310  0.6830787    0.00000       Uiso       1.00
      C460          C  0.9638549  0.8017036  0.6078480    0.00000       Uiso       1.00
      C461          C  0.9391212  0.7781783  0.6073135    0.00000       Uiso       1.00
      C462          C  0.9140818  0.7792425  0.5842761    0.00000       Uiso       1.00
      C463          C  0.8898357  0.7551527  0.5836715    0.00000       Uiso       1.00
      C464          C  0.8905268  0.7289709  0.6053876    0.00000       Uiso       1.00
      C465          C  0.9161802  0.7282436  0.6280946    0.00000       Uiso       1.00
      C466          C  0.9398906  0.7528102  0.6305178    0.00000       Uiso       1.00
      O106          O  0.9668323  0.8279035  0.5867106    0.00000       Uiso       1.00
      H292          H  0.9133651  0.7989026  0.5667558    0.00000       Uiso       1.00
      H293          H  0.8707810  0.7573537  0.5659152    0.00000       Uiso       1.00
      H294          H  0.9183202  0.7081879  0.6432050    0.00000       Uiso       1.00
      C467          C  0.9874263  0.6297731  0.8032723    0.00000       Uiso       1.00
      C468          C  0.9879816  0.6544866  0.7797580    0.00000       Uiso       1.00
      C469          C  0.0110678  0.6795229  0.7808065    0.00000       Uiso       1.00
      C470          C  0.0116860  0.7037468  0.7567301    0.00000       Uiso       1.00
      C471          C  0.9899301  0.7030404  0.7305744    0.00000       Uiso       1.00
      C472          C  0.9671766  0.6773883  0.7298632    0.00000       Uiso       1.00
      C473          C  0.9647468  0.6537020  0.7544167    0.00000       Uiso       1.00
      O107          O  0.0085769  0.6268163  0.8294534    0.00000       Uiso       1.00
      H295          H  0.0286119  0.6802583  0.8004488    0.00000       Uiso       1.00
      H296          H  0.0294832  0.7227988  0.7589271    0.00000       Uiso       1.00
      H297          H  0.9520347  0.6752177  0.7098296    0.00000       Uiso       1.00
      C474          C  0.7918357  0.6060994  0.6314612    0.00000       Uiso       1.00
      C475          C  0.8153566  0.6055773  0.6561632    0.00000       Uiso       1.00
      C476          C  0.8142949  0.5825004  0.6811724    0.00000       Uiso       1.00
      C477          C  0.8383818  0.5818973  0.7053843    0.00000       Uiso       1.00
      C478          C  0.8645627  0.6036693  0.7046945    0.00000       Uiso       1.00
      C479          C  0.8652840  0.6264228  0.6790692    0.00000       Uiso       1.00
      C480          C  0.8407184  0.6288279  0.6553922    0.00000       Uiso       1.00
      O108          O  0.7656420  0.5849204  0.6284961    0.00000       Uiso       1.00
      H298          H  0.7946319  0.5649480  0.6818898    0.00000       Uiso       1.00
      H299          H  0.8361726  0.5640973  0.7244112    0.00000       Uiso       1.00
      H300          H  0.8853369  0.6415805  0.6769112    0.00000       Uiso       1.00
        B4          B  0.7504247  0.5968227  0.5987141    0.00000       Uiso       1.00
        B5          B  0.9966410  0.5970205  0.8446752    0.00000       Uiso       1.00
        B6          B  0.9966446  0.8431227  0.5986035    0.00000       Uiso       1.00
       Si1         Si  0.3952809  0.5870458  0.2002328    0.00000       Uiso       1.00
        B7          B  0.3412106  0.5529633  0.1902745    0.00000       Uiso       1.00
      O109          O  0.3623575  0.5750424  0.1769491    0.00000       Uiso       1.00
      O110          O  0.3928996  0.5750520  0.2331352    0.00000       Uiso       1.00
        B8          B  0.4052753  0.5529740  0.2542536    0.00000       Uiso       1.00
        B9          B  0.4052230  0.5529647  0.1902096    0.00000       Uiso       1.00
      O111          O  0.4185680  0.5750482  0.2025987    0.00000       Uiso       1.00
      O112          O  0.3478904  0.5311562  0.2175059    0.00000       Uiso       1.00
      O113          O  0.4040115  0.5311626  0.2475566    0.00000       Uiso       1.00
      O114          O  0.3779616  0.5311537  0.1914585    0.00000       Uiso       1.00
       Si2         Si  0.3725776  0.5190466  0.2228724    0.00000       Uiso       1.00
      H301          H  0.4056314  0.6180476  0.1899109    0.00000       Uiso       1.00
      H302          H  0.3622273  0.4880450  0.2331941    0.00000       Uiso       1.00
       Si3         Si  0.3951928  0.1987303  0.5886431    0.00000       Uiso       1.00
       B10          B  0.4052173  0.1887671  0.5545844    0.00000       Uiso       1.00
      O115          O  0.3928141  0.1754316  0.5766479    0.00000       Uiso       1.00
      O116          O  0.4185056  0.2316556  0.5766585    0.00000       Uiso       1.00
       B11          B  0.4051846  0.2527883  0.5545955    0.00000       Uiso       1.00
       B12          B  0.3411392  0.1886999  0.5545837    0.00000       Uiso       1.00
      O117          O  0.3622748  0.2010970  0.5766526    0.00000       Uiso       1.00
      O118          O  0.4039806  0.2160172  0.5327926    0.00000       Uiso       1.00
      O119          O  0.3779354  0.2460868  0.5327981    0.00000       Uiso       1.00
      O120          O  0.3478405  0.1899506  0.5327881    0.00000       Uiso       1.00
       Si4         Si  0.3725532  0.2213866  0.5206903    0.00000       Uiso       1.00
      H303          H  0.4055145  0.1884007  0.6196237    0.00000       Uiso       1.00
      H304          H  0.3622312  0.2317159  0.4897099    0.00000       Uiso       1.00
      C481          C  0.7932431  0.1488908  0.6301322    0.00000       Uiso       1.00
      C482          C  0.8174251  0.1503423  0.6541294    0.00000       Uiso       1.00
      C483          C  0.8181912  0.1531581  0.6771621    0.00000       Uiso       1.00
      C484          C  0.8420904  0.1531499  0.7015676    0.00000       Uiso       1.00
      C485          C  0.8652081  0.1487227  0.7041268    0.00000       Uiso       1.00
      C486          C  0.8638042  0.1455003  0.6808078    0.00000       Uiso       1.00
      C487          C  0.8412116  0.1482642  0.6550699    0.00000       Uiso       1.00
      O121          O  0.7678832  0.1494960  0.6262816    0.00000       Uiso       1.00
      H305          H  0.8001399  0.1553927  0.6761363    0.00000       Uiso       1.00
      H306          H  0.8419857  0.1563327  0.7183653    0.00000       Uiso       1.00
      H307          H  0.8795141  0.1390150  0.6832265    0.00000       Uiso       1.00
      C488          C  0.9655107  0.1489679  0.6068717    0.00000       Uiso       1.00
      C489          C  0.9415087  0.1504307  0.6055990    0.00000       Uiso       1.00
      C490          C  0.9184618  0.1532247  0.5805310    0.00000       Uiso       1.00
      C491          C  0.8940430  0.1532029  0.5800368    0.00000       Uiso       1.00
      C492          C  0.8914788  0.1487765  0.6050124    0.00000       Uiso       1.00
      C493          C  0.9148196  0.1455899  0.6301322    0.00000       Uiso       1.00
      C494          C  0.9405730  0.1483709  0.6305079    0.00000       Uiso       1.00
      O122          O  0.9693475  0.1495332  0.5847756    0.00000       Uiso       1.00
      H308          H  0.9194781  0.1554389  0.5612816    0.00000       Uiso       1.00
      H309          H  0.8772367  0.1563658  0.5599622    0.00000       Uiso       1.00
      H310          H  0.9124078  0.1391086  0.6499038    0.00000       Uiso       1.00
      C495          C  0.9887022  0.1489716  0.8022524    0.00000       Uiso       1.00
      C496          C  0.9899868  0.1504537  0.7780677    0.00000       Uiso       1.00
      C497          C  0.0150829  0.1532923  0.7772950    0.00000       Uiso       1.00
      C498          C  0.0155999  0.1533031  0.7533942    0.00000       Uiso       1.00
      C499          C  0.9906172  0.1488729  0.7302812    0.00000       Uiso       1.00
      C500          C  0.9654664  0.1456431  0.7316870    0.00000       Uiso       1.00
      C501          C  0.9650680  0.1483786  0.7542904    0.00000       Uiso       1.00
      O123          O  0.0108140  0.1495777  0.8275986    0.00000       Uiso       1.00
      H311          H  0.0343339  0.1555156  0.7953513    0.00000       Uiso       1.00
      H312          H  0.0356937  0.1564909  0.7534987    0.00000       Uiso       1.00
      H313          H  0.9456899  0.1391639  0.7159740    0.00000       Uiso       1.00
      C502          C  0.9639953  0.1453117  0.8034005    0.00000       Uiso       1.00
      C503          C  0.9392775  0.1446370  0.7798914    0.00000       Uiso       1.00
      C504          C  0.9142315  0.1415726  0.7809585    0.00000       Uiso       1.00
      C505          C  0.8900023  0.1420202  0.7568858    0.00000       Uiso       1.00
      C506          C  0.8907182  0.1471748  0.7307189    0.00000       Uiso       1.00
      C507          C  0.9163781  0.1508468  0.7299885    0.00000       Uiso       1.00
      C508          C  0.9400703  0.1475674  0.7545371    0.00000       Uiso       1.00
      O124          O  0.9669496  0.1432296  0.8295856    0.00000       Uiso       1.00
      H314          H  0.9134966  0.1387182  0.8006077    0.00000       Uiso       1.00
      H315          H  0.8709411  0.1385222  0.7590879    0.00000       Uiso       1.00
      H316          H  0.9185385  0.1579312  0.7099451    0.00000       Uiso       1.00
      C509          C  0.9877219  0.1453614  0.6315538    0.00000       Uiso       1.00
      C510          C  0.9882555  0.1447209  0.6562544    0.00000       Uiso       1.00
      C511          C  0.0113228  0.1417224  0.6812726    0.00000       Uiso       1.00
      C512          C  0.0119201  0.1421967  0.7054842    0.00000       Uiso       1.00
      C513          C  0.9901626  0.1473069  0.7047839    0.00000       Uiso       1.00
      C514          C  0.9674286  0.1509169  0.6791501    0.00000       Uiso       1.00
      C515          C  0.9650180  0.1476153  0.6554753    0.00000       Uiso       1.00
      O125          O  0.0088783  0.1432843  0.6285941    0.00000       Uiso       1.00
      H317          H  0.0288686  0.1388860  0.6820037    0.00000       Uiso       1.00
      H318          H  0.0297027  0.1387447  0.7245222    0.00000       Uiso       1.00
      H319          H  0.9522881  0.1579827  0.6769857    0.00000       Uiso       1.00
      C516          C  0.7921163  0.1452740  0.6079276    0.00000       Uiso       1.00
      C517          C  0.8156417  0.1446119  0.6074014    0.00000       Uiso       1.00
      C518          C  0.8145991  0.1416138  0.5843355    0.00000       Uiso       1.00
      C519          C  0.8386912  0.1420893  0.5837285    0.00000       Uiso       1.00
      C520          C  0.8648593  0.1471898  0.6054863    0.00000       Uiso       1.00
      C521          C  0.8655621  0.1507875  0.6282293    0.00000       Uiso       1.00
      C522          C  0.8409887  0.1474957  0.6306364    0.00000       Uiso       1.00
      O126          O  0.7659357  0.1432234  0.5867636    0.00000       Uiso       1.00
      H320          H  0.7949470  0.1387845  0.5667946    0.00000       Uiso       1.00
      H321          H  0.8364960  0.1386495  0.5659370    0.00000       Uiso       1.00
      H322          H  0.8856075  0.1578429  0.6433778    0.00000       Uiso       1.00
       B13          B  0.7507061  0.1458901  0.5986634    0.00000       Uiso       1.00
       B14          B  0.9969673  0.1459202  0.5988166    0.00000       Uiso       1.00
       B15          B  0.9967549  0.1459295  0.8447925    0.00000       Uiso       1.00
       Si5         Si  0.3957759  0.1988201  0.2008569    0.00000       Uiso       1.00
       B16          B  0.4058288  0.2528817  0.1909148    0.00000       Uiso       1.00
      O127          O  0.3934280  0.2317430  0.1775814    0.00000       Uiso       1.00
      O128          O  0.4190649  0.2011952  0.2337619    0.00000       Uiso       1.00
       B17          B  0.4057189  0.1888051  0.2548821    0.00000       Uiso       1.00
       B18          B  0.3417180  0.1888576  0.1908381    0.00000       Uiso       1.00
      O129          O  0.3628421  0.1755221  0.2032207    0.00000       Uiso       1.00
      O130          O  0.4045657  0.2461887  0.2181489    0.00000       Uiso       1.00
      O131          O  0.3784709  0.1900572  0.2481893    0.00000       Uiso       1.00
      O132          O  0.3484283  0.2161121  0.1920960    0.00000       Uiso       1.00
       Si6         Si  0.3731197  0.2214903  0.2235132    0.00000       Uiso       1.00
      H323          H  0.4061052  0.1884847  0.1905274    0.00000       Uiso       1.00
      H324          H  0.3627902  0.2318256  0.2338424    0.00000       Uiso       1.00
      C523          C  0.7928704  0.6051211  0.1502629    0.00000       Uiso       1.00
      C524          C  0.8170552  0.6038516  0.1517088    0.00000       Uiso       1.00
      C525          C  0.8178107  0.5787613  0.1545148    0.00000       Uiso       1.00
      C526          C  0.8417141  0.5782602  0.1545021    0.00000       Uiso       1.00
      C527          C  0.8648481  0.6032509  0.1500813    0.00000       Uiso       1.00
      C528          C  0.8634551  0.6283966  0.1468690    0.00000       Uiso       1.00
      C529          C  0.8408561  0.6287810  0.1496357    0.00000       Uiso       1.00
      O133          O  0.7674981  0.5830024  0.1508650    0.00000       Uiso       1.00
      H325          H  0.7997478  0.5594971  0.1567452    0.00000       Uiso       1.00
      H326          H  0.8416000  0.5581689  0.1576767    0.00000       Uiso       1.00
      H327          H  0.8791800  0.6481767  0.1403907    0.00000       Uiso       1.00
      C530          C  0.9652337  0.8006175  0.1503731    0.00000       Uiso       1.00
      C531          C  0.9412181  0.7764202  0.1518316    0.00000       Uiso       1.00
      C532          C  0.9181643  0.7756502  0.1546280    0.00000       Uiso       1.00
      C533          C  0.8937331  0.7517422  0.1546028    0.00000       Uiso       1.00
      C534          C  0.8911648  0.7286207  0.1501715    0.00000       Uiso       1.00
      C535          C  0.9145131  0.7300258  0.1469827    0.00000       Uiso       1.00
      C536          C  0.9402762  0.7526274  0.1497652    0.00000       Uiso       1.00
      O134          O  0.9690791  0.8259933  0.1509457    0.00000       Uiso       1.00
      H328          H  0.9191847  0.7937078  0.1568468    0.00000       Uiso       1.00
      H329          H  0.8769210  0.7518499  0.1577671    0.00000       Uiso       1.00
      H330          H  0.9121014  0.7143179  0.1405000    0.00000       Uiso       1.00
      C537          C  0.9883728  0.6283652  0.1503159    0.00000       Uiso       1.00
      C538          C  0.9896643  0.6523603  0.1518050    0.00000       Uiso       1.00
      C539          C  0.0147700  0.6753959  0.1546451    0.00000       Uiso       1.00
      C540          C  0.0152952  0.6998108  0.1546639    0.00000       Uiso       1.00
      C541          C  0.9903126  0.7023742  0.1502413    0.00000       Uiso       1.00
      C542          C  0.9651524  0.6790422  0.1470100    0.00000       Uiso       1.00
      C543          C  0.9647430  0.6532967  0.1497358    0.00000       Uiso       1.00
      O135          O  0.0104869  0.6245211  0.1509164    0.00000       Uiso       1.00
      H331          H  0.0340223  0.6743650  0.1568635    0.00000       Uiso       1.00
      H332          H  0.0353953  0.7166162  0.1578519    0.00000       Uiso       1.00
      H333          H  0.9453787  0.6814598  0.1405385    0.00000       Uiso       1.00
      C544          C  0.9636574  0.6061649  0.1466551    0.00000       Uiso       1.00
      C545          C  0.9389354  0.6056333  0.1459850    0.00000       Uiso       1.00
      C546          C  0.9138800  0.5825794  0.1429192    0.00000       Uiso       1.00
      C547          C  0.8896458  0.5819779  0.1433707    0.00000       Uiso       1.00
      C548          C  0.8903645  0.6037140  0.1485297    0.00000       Uiso       1.00
      C549          C  0.9160333  0.6264375  0.1522026    0.00000       Uiso       1.00
      C550          C  0.9397334  0.6288581  0.1489214    0.00000       Uiso       1.00
      O136          O  0.9666071  0.5850085  0.1445666    0.00000       Uiso       1.00
      H334          H  0.9131417  0.5650435  0.1400606    0.00000       Uiso       1.00
      H335          H  0.8705783  0.5642083  0.1398721    0.00000       Uiso       1.00
      H336          H  0.9181928  0.6415626  0.1592880    0.00000       Uiso       1.00
      C551          C  0.9874526  0.8017504  0.1467648    0.00000       Uiso       1.00
      C552          C  0.9879790  0.7782160  0.1461168    0.00000       Uiso       1.00
      C553          C  0.0110536  0.7792610  0.1431160    0.00000       Uiso       1.00
      C554          C  0.0116426  0.7551644  0.1435820    0.00000       Uiso       1.00
      C555          C  0.9898680  0.7289915  0.1486849    0.00000       Uiso       1.00
      C556          C  0.9671265  0.7282842  0.1522969    0.00000       Uiso       1.00
      C557          C  0.9647264  0.7528579  0.1490056    0.00000       Uiso       1.00
      O137          O  0.0086233  0.8279498  0.1446936    0.00000       Uiso       1.00
      H337          H  0.0286115  0.7989163  0.1402843    0.00000       Uiso       1.00
      H338          H  0.0294322  0.7573594  0.1401293    0.00000       Uiso       1.00
      H339          H  0.9519705  0.7082384  0.1593552    0.00000       Uiso       1.00
      C558          C  0.7917547  0.6298236  0.1466562    0.00000       Uiso       1.00
      C559          C  0.8152931  0.6545427  0.1459983    0.00000       Uiso       1.00
      C560          C  0.8142611  0.6795720  0.1430102    0.00000       Uiso       1.00
      C561          C  0.8383651  0.7038010  0.1434891    0.00000       Uiso       1.00
      C562          C  0.8645335  0.7031084  0.1485820    0.00000       Uiso       1.00
      C563          C  0.8652248  0.6774625  0.1521693    0.00000       Uiso       1.00
      C564          C  0.8406420  0.6537682  0.1488758    0.00000       Uiso       1.00
      O138          O  0.7655702  0.6268592  0.1446105    0.00000       Uiso       1.00
      H340          H  0.7946082  0.6802921  0.1401861    0.00000       Uiso       1.00
      H341          H  0.8361789  0.7228432  0.1400577    0.00000       Uiso       1.00
      H342          H  0.8852670  0.6753021  0.1592167    0.00000       Uiso       1.00
       B19          B  0.7503256  0.5970553  0.1472687    0.00000       Uiso       1.00
       B20          B  0.9967128  0.8431870  0.1473352    0.00000       Uiso       1.00
       B21          B  0.9964194  0.5969081  0.1472636    0.00000       Uiso       1.00
       Si7         Si  0.0064018  0.1986600  0.1999776    0.00000       Uiso       1.00
       B22          B  0.0404610  0.1887105  0.2540029    0.00000       Uiso       1.00
      O139          O  0.0183809  0.1753683  0.2328780    0.00000       Uiso       1.00
      O140          O  0.0184150  0.2315871  0.2023516    0.00000       Uiso       1.00
       B23          B  0.0405062  0.2527224  0.1899710    0.00000       Uiso       1.00
       B24          B  0.0404735  0.1886362  0.1900232    0.00000       Uiso       1.00
      O141          O  0.0184043  0.2010267  0.1766963    0.00000       Uiso       1.00
      O142          O  0.0622842  0.2159636  0.2473153    0.00000       Uiso       1.00
      O143          O  0.0623098  0.2460259  0.1912229    0.00000       Uiso       1.00
      O144          O  0.0622761  0.1898947  0.2172595    0.00000       Uiso       1.00
       Si8         Si  0.0744009  0.2213327  0.2226345    0.00000       Uiso       1.00
      H343          H  0.9754001  0.1883230  0.1896483    0.00000       Uiso       1.00
      H344          H  0.1054025  0.2316695  0.2329638    0.00000       Uiso       1.00
