data_115
_audit_creation_date              0000-00-00
_audit_creation_method            'LanYouShi'
_symmetry_space_group_name_H-M    'P1'
_cell_length_a                    56.8064003
_cell_length_b                    56.7661018
_cell_length_c                    56.8064003
_cell_angle_alpha                 119.9765015
_cell_angle_beta                  119.9776993
_cell_angle_gamma                 60.0012016
loop_
_atom_site_label
_atom_site_type_symbol
_atom_site_fract_x
_atom_site_fract_y
_atom_site_fract_z
_atom_site_U_iso_or_equiv
_atom_site_adp_type
_atom_site_occupancy
        C1          C  0.4158427  0.4166463  0.5527162    0.00000       Uiso       1.00
        C2          C  0.4010601  0.4443044  0.5506067    0.00000       Uiso       1.00
        C3          C  0.4136770  0.4569772  0.5463452    0.00000       Uiso       1.00
        C4          C  0.4434753  0.4018590  0.5505924    0.00000       Uiso       1.00
        C5          C  0.4561276  0.4144964  0.5463309    0.00000       Uiso       1.00
        C6          C  0.4420200  0.4428652  0.5451509    0.00000       Uiso       1.00
        H1          H  0.4558691  0.3793121  0.5523369    0.00000       Uiso       1.00
        H2          H  0.3785338  0.4567024  0.5523630    0.00000       Uiso       1.00
        C7          C  0.4460345  0.7214679  0.5830005    0.00000       Uiso       1.00
        C8          C  0.4481539  0.7064728  0.5977731    0.00000       Uiso       1.00
        C9          C  0.4524211  0.6769160  0.5851505    0.00000       Uiso       1.00
       C10          C  0.4481539  0.7065030  0.5553721    0.00000       Uiso       1.00
       C11          C  0.4524212  0.6769462  0.5427142    0.00000       Uiso       1.00
       C12          C  0.4536111  0.6614949  0.5568117    0.00000       Uiso       1.00
        H3          H  0.4464012  0.7184089  0.5429865    0.00000       Uiso       1.00
        H4          H  0.4464012  0.7183539  0.6202958    0.00000       Uiso       1.00
       C13          C  0.7208786  0.4468020  0.5830954    0.00000       Uiso       1.00
       C14          C  0.7059090  0.4489383  0.5554727    0.00000       Uiso       1.00
       C15          C  0.6763726  0.4532091  0.5428262    0.00000       Uiso       1.00
       C16          C  0.7059090  0.4489082  0.5978737    0.00000       Uiso       1.00
       C17          C  0.6763726  0.4531789  0.5852625    0.00000       Uiso       1.00
       C18          C  0.6609472  0.4543851  0.5569295    0.00000       Uiso       1.00
        H5          H  0.4766764  0.4015860  0.3333342    0.00000       Uiso       1.00
        H6          H  0.4768639  0.4016227  0.5433074    0.00000       Uiso       1.00
        H7          H  0.7177942  0.4471416  0.6203918    0.00000       Uiso       1.00
        H8          H  0.7177942  0.4471966  0.5430826    0.00000       Uiso       1.00
       C19          C  0.4156552  0.4166557  0.2779648    0.00000       Uiso       1.00
       C20          C  0.4432879  0.4018563  0.2929244    0.00000       Uiso       1.00
       C21          C  0.4559401  0.4144696  0.3224550    0.00000       Uiso       1.00
       C22          C  0.4008726  0.4443017  0.2929387    0.00000       Uiso       1.00
       C23          C  0.4134895  0.4569504  0.3224693    0.00000       Uiso       1.00
       C24          C  0.4418326  0.4428266  0.3378848    0.00000       Uiso       1.00
        H9          H  0.6654854  0.4562436  0.5220980    0.00000       Uiso       1.00
       H10          H  0.4554414  0.6660634  0.5219812    0.00000       Uiso       1.00
       H11          H  0.3783464  0.4567093  0.2810616    0.00000       Uiso       1.00
       H12          H  0.4556817  0.3793190  0.2810356    0.00000       Uiso       1.00
        N1          N  0.3956891  0.4859884  0.5421349    0.00000       Uiso       1.00
       H13          H  0.4073260  0.4926228  0.5393087    0.00000       Uiso       1.00
       H14          H  0.3898178  0.5004562  0.5596877    0.00000       Uiso       1.00
        N2          N  0.3955016  0.4859478  0.3376915    0.00000       Uiso       1.00
       H15          H  0.4071385  0.4925651  0.3587745    0.00000       Uiso       1.00
       H16          H  0.3776881  0.4842290  0.3357094    0.00000       Uiso       1.00
        N3          N  0.4566426  0.6616712  0.6031272    0.00000       Uiso       1.00
       H17          H  0.4594721  0.6405704  0.5914871    0.00000       Uiso       1.00
       H18          H  0.4390888  0.6706284  0.6089996    0.00000       Uiso       1.00
        N4          N  0.6611551  0.4573869  0.6032459    0.00000       Uiso       1.00
       H19          H  0.6400672  0.4602206  0.5916138    0.00000       Uiso       1.00
       H20          H  0.6631373  0.4749371  0.6210592    0.00000       Uiso       1.00
       C25          C  0.4542746  0.4552468  0.5376399    0.00000       Uiso       1.00
       C26          C  0.4841547  0.4489754  0.5470167    0.00000       Uiso       1.00
       C27          C  0.4955915  0.4593679  0.5386424    0.00000       Uiso       1.00
       C28          C  0.4361508  0.4726642  0.5200439    0.00000       Uiso       1.00
       C29          C  0.4474652  0.4835176  0.5121706    0.00000       Uiso       1.00
       C30          C  0.4774504  0.4767801  0.5207914    0.00000       Uiso       1.00
       H21          H  0.4524176  0.5751957  0.5458766    0.00000       Uiso       1.00
       H22          H  0.5700555  0.5004097  0.5663670    0.00000       Uiso       1.00
       H23          H  0.4130834  0.4773756  0.5115092    0.00000       Uiso       1.00
       C31          C  0.4611590  0.6293355  0.5443918    0.00000       Uiso       1.00
       C32          C  0.4517715  0.6150069  0.5505470    0.00000       Uiso       1.00
       C33          C  0.4600914  0.5847949  0.5400031    0.00000       Uiso       1.00
       C34          C  0.4787328  0.6125336  0.5269596    0.00000       Uiso       1.00
       C35          C  0.4865387  0.5824929  0.5159473    0.00000       Uiso       1.00
       C36          C  0.4779071  0.5677640  0.5225612    0.00000       Uiso       1.00
       H24          H  0.5187345  0.4534126  0.5463073    0.00000       Uiso       1.00
       H25          H  0.4528534  0.5194491  0.4240843    0.00000       Uiso       1.00
       H26          H  0.4379231  0.6271979  0.5635716    0.00000       Uiso       1.00
       C37          C  0.6288027  0.4618037  0.5446301    0.00000       Uiso       1.00
       C38          C  0.6145918  0.4524201  0.5147449    0.00000       Uiso       1.00
       C39          C  0.5843974  0.4606873  0.5032806    0.00000       Uiso       1.00
       C40          C  0.6118863  0.4792818  0.5627199    0.00000       Uiso       1.00
       C41          C  0.5818612  0.4870462  0.5513769    0.00000       Uiso       1.00
       C42          C  0.5672555  0.4784428  0.5213910    0.00000       Uiso       1.00
       H27          H  0.4964275  0.4330212  0.4286018    0.00000       Uiso       1.00
       H28          H  0.4324571  0.4968863  0.4987360    0.00000       Uiso       1.00
       H29          H  0.6216673  0.4878198  0.5857882    0.00000       Uiso       1.00
       C43          C  0.4543129  0.4550475  0.3700283    0.00000       Uiso       1.00
       C44          C  0.4718799  0.4368521  0.3868583    0.00000       Uiso       1.00
       C45          C  0.4829704  0.4480889  0.4168697    0.00000       Uiso       1.00
       C46          C  0.4481290  0.4849343  0.3843212    0.00000       Uiso       1.00
       C47          C  0.4587570  0.4962957  0.4145102    0.00000       Uiso       1.00
       C48          C  0.4763080  0.4780742  0.4315620    0.00000       Uiso       1.00
       H30          H  0.5748883  0.4530322  0.4801396    0.00000       Uiso       1.00
       H31          H  0.4999501  0.5707731  0.5025724    0.00000       Uiso       1.00
       H32          H  0.4350162  0.4996212  0.3721212    0.00000       Uiso       1.00
        N5          N  0.5045646  0.4308201  0.5663824    0.00000       Uiso       1.00
       H33          H  0.5250609  0.4285184  0.5709455    0.00000       Uiso       1.00
       H34          H  0.5022126  0.4112109  0.5562932    0.00000       Uiso       1.00
        N6          N  0.4783903  0.4046086  0.3731190    0.00000       Uiso       1.00
       H35          H  0.4912442  0.3952491  0.3885314    0.00000       Uiso       1.00
       H36          H  0.4884777  0.3968097  0.3589832    0.00000       Uiso       1.00
        N7          N  0.4907053  0.6263438  0.5205138    0.00000       Uiso       1.00
       H37          H  0.5027191  0.6109378  0.5077540    0.00000       Uiso       1.00
       H38          H  0.5031077  0.6369258  0.5391446    0.00000       Uiso       1.00
        N8          N  0.6317145  0.4331601  0.4943546    0.00000       Uiso       1.00
       H39          H  0.6181059  0.4285752  0.4738565    0.00000       Uiso       1.00
       H40          H  0.6450118  0.4146720  0.4988611    0.00000       Uiso       1.00
       C49          C  0.5212076  0.4788744  0.4761527    0.00000       Uiso       1.00
       C50          C  0.4783413  0.5216319  0.5219748    0.00000       Uiso       1.00
       C51          C  0.4877156  0.4895796  0.4650208    0.00000       Uiso       1.00
       C52          C  0.4768140  0.5232174  0.4776650    0.00000       Uiso       1.00
       H41          H  0.4839844  0.5318046  0.4694690    0.00000       Uiso       1.00
       H42          H  0.4528210  0.5316167  0.4702558    0.00000       Uiso       1.00
       C53          C  0.5337924  0.4889586  0.5097734    0.00000       Uiso       1.00
       C54          C  0.5226542  0.4772415  0.5204117    0.00000       Uiso       1.00
       H43          H  0.5310524  0.4532326  0.5122081    0.00000       Uiso       1.00
       H44          H  0.5311766  0.4843909  0.5443469    0.00000       Uiso       1.00
       C55          C  0.4890388  0.4881435  0.5102801    0.00000       Uiso       1.00
       H45          H  0.4543988  0.5298634  0.5147921    0.00000       Uiso       1.00
       C56          C  0.4775370  0.4779983  0.4767854    0.00000       Uiso       1.00
       H46          H  0.4536025  0.4854228  0.4683733    0.00000       Uiso       1.00
       H47          H  0.4849816  0.4540456  0.4686658    0.00000       Uiso       1.00
       C57          C  0.5219690  0.5224868  0.5213209    0.00000       Uiso       1.00
       H48          H  0.4865145  0.5290141  0.5459621    0.00000       Uiso       1.00
       C58          C  0.4884632  0.5342904  0.5111368    0.00000       Uiso       1.00
       H49          H  0.5300571  0.5308719  0.5452514    0.00000       Uiso       1.00
       H50          H  0.5303727  0.5306277  0.5139197    0.00000       Uiso       1.00
       H51          H  0.5286292  0.4871016  0.4677977    0.00000       Uiso       1.00
       H52          H  0.5294457  0.4549177  0.4675839    0.00000       Uiso       1.00
       C59          C  0.8422890  0.4169208  0.2784242    0.00000       Uiso       1.00
       C60          C  0.8444021  0.4445699  0.2933955    0.00000       Uiso       1.00
       C61          C  0.8486630  0.4572171  0.3229274    0.00000       Uiso       1.00
       C62          C  0.8444085  0.4021166  0.2933876    0.00000       Uiso       1.00
       C63          C  0.8486694  0.4147284  0.3229195    0.00000       Uiso       1.00
       C64          C  0.8498528  0.4430883  0.3383470    0.00000       Uiso       1.00
       H53          H  0.8426609  0.3795767  0.2815009    0.00000       Uiso       1.00
       H54          H  0.8426493  0.4569814  0.2815154    0.00000       Uiso       1.00
       C65          C  0.8120061  0.7215360  0.5829475    0.00000       Uiso       1.00
       C66          C  0.7972299  0.7065679  0.5553216    0.00000       Uiso       1.00
       C67          C  0.8098531  0.6770127  0.5426624    0.00000       Uiso       1.00
       C68          C  0.8396388  0.7065457  0.5977162    0.00000       Uiso       1.00
       C69          C  0.8522974  0.6769904  0.5850924    0.00000       Uiso       1.00
       C70          C  0.8381963  0.6615665  0.5567559    0.00000       Uiso       1.00
       H55          H  0.8520275  0.7184293  0.6202368    0.00000       Uiso       1.00
       H56          H  0.7747037  0.7184700  0.5429391    0.00000       Uiso       1.00
       C71          C  0.8118594  0.4468189  0.5830818    0.00000       Uiso       1.00
       C72          C  0.8394896  0.4489330  0.5978537    0.00000       Uiso       1.00
       C73          C  0.8521431  0.4532116  0.5852362    0.00000       Uiso       1.00
       C74          C  0.7970808  0.4489553  0.5554591    0.00000       Uiso       1.00
       C75          C  0.8096989  0.4532339  0.5428063    0.00000       Uiso       1.00
       C76          C  0.8380396  0.4544181  0.5569029    0.00000       Uiso       1.00
       H57          H  0.0617028  0.4015455  0.5433695    0.00000       Uiso       1.00
       H58          H  0.8516899  0.4018416  0.3338013    0.00000       Uiso       1.00
       H59          H  0.7745566  0.4472072  0.5430741    0.00000       Uiso       1.00
       H60          H  0.8518803  0.4471666  0.6203718    0.00000       Uiso       1.00
       C77          C  0.1170923  0.4165907  0.5527610    0.00000       Uiso       1.00
       C78          C  0.1021252  0.4017955  0.5506436    0.00000       Uiso       1.00
       C79          C  0.0725876  0.4144250  0.5463884    0.00000       Uiso       1.00
       C80          C  0.1021189  0.4442488  0.5506516    0.00000       Uiso       1.00
       C81          C  0.0725813  0.4569137  0.5463964    0.00000       Uiso       1.00
       C82          C  0.0571581  0.4427936  0.5452086    0.00000       Uiso       1.00
       H61          H  0.8728770  0.4562281  0.5980974    0.00000       Uiso       1.00
       H62          H  0.8730333  0.6660870  0.5979510    0.00000       Uiso       1.00
       H63          H  0.1140020  0.4566531  0.5524027    0.00000       Uiso       1.00
       H64          H  0.1140135  0.3792484  0.5523882    0.00000       Uiso       1.00
        N9          N  0.8528780  0.4862186  0.3381462    0.00000       Uiso       1.00
       H65          H  0.8557032  0.4928343  0.3592306    0.00000       Uiso       1.00
       H66          H  0.8353234  0.5007031  0.3291980    0.00000       Uiso       1.00
       N10          N  0.0573601  0.4859254  0.5421856    0.00000       Uiso       1.00
       H67          H  0.0362716  0.4925537  0.5393642    0.00000       Uiso       1.00
       H68          H  0.0593452  0.4842213  0.5246443    0.00000       Uiso       1.00
       N11          N  0.7918718  0.6617972  0.5136864    0.00000       Uiso       1.00
       H69          H  0.8035129  0.6406945  0.5070587    0.00000       Uiso       1.00
       H70          H  0.7860013  0.6707711  0.4992254    0.00000       Uiso       1.00
       N12          N  0.7917146  0.4574749  0.5138339    0.00000       Uiso       1.00
       H71          H  0.8033522  0.4603110  0.5072107    0.00000       Uiso       1.00
       H72          H  0.7738982  0.4750327  0.5155547    0.00000       Uiso       1.00
       C83          C  0.8573638  0.4554408  0.3704726    0.00000       Uiso       1.00
       C84          C  0.8479806  0.4491586  0.3847013    0.00000       Uiso       1.00
       C85          C  0.8563551  0.4595231  0.4148843    0.00000       Uiso       1.00
       C86          C  0.8749666  0.4728403  0.3873442    0.00000       Uiso       1.00
       C87          C  0.8828400  0.4836661  0.4173648    0.00000       Uiso       1.00
       C88          C  0.8742128  0.4769171  0.4319881    0.00000       Uiso       1.00
       H73          H  0.8491305  0.5753163  0.4802508    0.00000       Uiso       1.00
       H74          H  0.8286157  0.5005031  0.5026213    0.00000       Uiso       1.00
       H75          H  0.8835065  0.4775584  0.3775242    0.00000       Uiso       1.00
       C89          C  0.8506163  0.6294078  0.5445725    0.00000       Uiso       1.00
       C90          C  0.8444608  0.6151054  0.5147215    0.00000       Uiso       1.00
       C91          C  0.8550043  0.5848945  0.5033813    0.00000       Uiso       1.00
       C92          C  0.8680485  0.6125805  0.5627643    0.00000       Uiso       1.00
       C93          C  0.8790605  0.5825406  0.5515495    0.00000       Uiso       1.00
       C94          C  0.8724462  0.5678381  0.5215958    0.00000       Uiso       1.00
       H76          H  0.8486851  0.4535607  0.4244058    0.00000       Uiso       1.00
       H77          H  0.9709434  0.5194582  0.5466666    0.00000       Uiso       1.00
       H78          H  0.8314363  0.6273163  0.5000494    0.00000       Uiso       1.00
       C95          C  0.8503464  0.4618450  0.5444773    0.00000       Uiso       1.00
       C96          C  0.8802389  0.4524439  0.5507563    0.00000       Uiso       1.00
       C97          C  0.8917102  0.4607181  0.5402935    0.00000       Uiso       1.00
       C98          C  0.8322563  0.4793482  0.5269611    0.00000       Uiso       1.00
       C99          C  0.8436063  0.4871200  0.5160439    0.00000       Uiso       1.00
      C100          C  0.8735996  0.4784988  0.5228086    0.00000       Uiso       1.00
       H79          H  0.9664152  0.4330584  0.4993377    0.00000       Uiso       1.00
       H80          H  0.8962799  0.4970221  0.4291467    0.00000       Uiso       1.00
       H81          H  0.8091825  0.4879000  0.5222206    0.00000       Uiso       1.00
      C101          C  0.0250072  0.4550344  0.5377789    0.00000       Uiso       1.00
      C102          C  0.0081707  0.4368569  0.5203387    0.00000       Uiso       1.00
      C103          C  0.9781522  0.4481129  0.5126666    0.00000       Uiso       1.00
      C104          C  0.0107137  0.4849231  0.5471833    0.00000       Uiso       1.00
      C105          C  0.9805175  0.4963042  0.5389960    0.00000       Uiso       1.00
      C106          C  0.9634592  0.4781010  0.5212922    0.00000       Uiso       1.00
       H82          H  0.9148567  0.4530484  0.5462608    0.00000       Uiso       1.00
       H83          H  0.8924356  0.5708005  0.5666059    0.00000       Uiso       1.00
       H84          H  0.0229185  0.4995962  0.5609432    0.00000       Uiso       1.00
       N13          N  0.8286076  0.4310217  0.3676090    0.00000       Uiso       1.00
       H85          H  0.8240404  0.4287090  0.3812354    0.00000       Uiso       1.00
       H86          H  0.8386982  0.4114162  0.3557436    0.00000       Uiso       1.00
       N14          N  0.0219105  0.4046135  0.5083525    0.00000       Uiso       1.00
       H87          H  0.0064928  0.3952682  0.4964477    0.00000       Uiso       1.00
       H88          H  0.0360470  0.3967936  0.5247648    0.00000       Uiso       1.00
       N15          N  0.8744943  0.6263623  0.5949713    0.00000       Uiso       1.00
       H89          H  0.8872540  0.6109406  0.6043324    0.00000       Uiso       1.00
       H90          H  0.8558585  0.6369486  0.5993270    0.00000       Uiso       1.00
       N16          N  0.9006297  0.4331570  0.5689964    0.00000       Uiso       1.00
       H91          H  0.9211336  0.4285622  0.5712938    0.00000       Uiso       1.00
       H92          H  0.8961196  0.4146757  0.5593092    0.00000       Uiso       1.00
      C107          C  0.9188534  0.4789155  0.5224155    0.00000       Uiso       1.00
      C108          C  0.8730308  0.5217377  0.4765162    0.00000       Uiso       1.00
      C109          C  0.9299928  0.4896293  0.5107610    0.00000       Uiso       1.00
      C110          C  0.9173493  0.5232686  0.5208458    0.00000       Uiso       1.00
       H93          H  0.9255461  0.5318332  0.5447825    0.00000       Uiso       1.00
       H94          H  0.9247637  0.5316744  0.5126616    0.00000       Uiso       1.00
      C111          C  0.8852249  0.4890228  0.5114791    0.00000       Uiso       1.00
      C112          C  0.8745859  0.4773371  0.4780087    0.00000       Uiso       1.00
       H95          H  0.8827888  0.4533276  0.4706072    0.00000       Uiso       1.00
       H96          H  0.8506452  0.4845034  0.4697565    0.00000       Uiso       1.00
      C113          C  0.8847248  0.4882490  0.4654282    0.00000       Uiso       1.00
       H97          H  0.8802187  0.5299760  0.4679884    0.00000       Uiso       1.00
      C114          C  0.9182271  0.4780799  0.4772601    0.00000       Uiso       1.00
       H98          H  0.9266446  0.4855103  0.4691623    0.00000       Uiso       1.00
       H99          H  0.9263462  0.4541276  0.4688778    0.00000       Uiso       1.00
      C115          C  0.8736782  0.5225520  0.5216287    0.00000       Uiso       1.00
      H100          H  0.8490381  0.5291370  0.4680956    0.00000       Uiso       1.00
      C116          C  0.8838698  0.5343646  0.5101110    0.00000       Uiso       1.00
      H101          H  0.8497424  0.5309535  0.5141819    0.00000       Uiso       1.00
      H102          H  0.8810799  0.5306705  0.5455582    0.00000       Uiso       1.00
      H103          H  0.9272092  0.4871198  0.5464026    0.00000       Uiso       1.00
      H104          H  0.9274217  0.4549579  0.5152712    0.00000       Uiso       1.00
      C117          C  0.1165687  0.4164734  0.9789774    0.00000       Uiso       1.00
      C118          C  0.1015953  0.4441195  0.9937605    0.00000       Uiso       1.00
      C119          C  0.0720577  0.4567903  0.9811509    0.00000       Uiso       1.00
      C120          C  0.1016016  0.4016964  0.9513516    0.00000       Uiso       1.00
      C121          C  0.0720640  0.4143318  0.9387066    0.00000       Uiso       1.00
      C122          C  0.0566345  0.4426895  0.9528149    0.00000       Uiso       1.00
      H105          H  0.1134899  0.3791594  0.9389575    0.00000       Uiso       1.00
      H106          H  0.1134772  0.4565106  0.0162817    0.00000       Uiso       1.00
      C123          C  0.8120042  0.7212757  0.9488487    0.00000       Uiso       1.00
      C124          C  0.8396369  0.7062974  0.9467249    0.00000       Uiso       1.00
      C125          C  0.8522955  0.6767362  0.9424555    0.00000       Uiso       1.00
      C126          C  0.7972280  0.7062895  0.9467312    0.00000       Uiso       1.00
      C127          C  0.8098512  0.6767282  0.9424618    0.00000       Uiso       1.00
      C128          C  0.8381944  0.6612930  0.9412673    0.00000       Uiso       1.00
      H107          H  0.7747018  0.7181814  0.9484875    0.00000       Uiso       1.00
      H108          H  0.8520256  0.7181959  0.9484758    0.00000       Uiso       1.00
      C129          C  0.8118594  0.4467542  0.6740456    0.00000       Uiso       1.00
      C130          C  0.7970806  0.4488603  0.6890147    0.00000       Uiso       1.00
      C131          C  0.8096988  0.4531089  0.7185437    0.00000       Uiso       1.00
      C132          C  0.8394896  0.4488682  0.6890084    0.00000       Uiso       1.00
      C133          C  0.8521430  0.4531168  0.7185373    0.00000       Uiso       1.00
      C134          C  0.8380395  0.4542921  0.7339621    0.00000       Uiso       1.00
      H109          H  0.8515397  0.4012397  0.9181944    0.00000       Uiso       1.00
      H110          H  0.0611792  0.4014649  0.9179754    0.00000       Uiso       1.00
      H111          H  0.8518803  0.4471262  0.6771234    0.00000       Uiso       1.00
      H112          H  0.7745565  0.4471118  0.6771350    0.00000       Uiso       1.00
      C135          C  0.8421388  0.4162361  0.9792061    0.00000       Uiso       1.00
      C136          C  0.8442583  0.4014623  0.9515777    0.00000       Uiso       1.00
      C137          C  0.8485192  0.4141040  0.9389277    0.00000       Uiso       1.00
      C138          C  0.8442519  0.4438854  0.9939866    0.00000       Uiso       1.00
      C139          C  0.8485129  0.4565625  0.9813719    0.00000       Uiso       1.00
      C140          C  0.8497027  0.4424648  0.9530336    0.00000       Uiso       1.00
      H113          H  0.7968321  0.4561205  0.7294309    0.00000       Uiso       1.00
      H114          H  0.7969866  0.6658298  0.9394436    0.00000       Uiso       1.00
      H115          H  0.8424980  0.4562739  0.0165098    0.00000       Uiso       1.00
      H116          H  0.8425107  0.3789227  0.9391856    0.00000       Uiso       1.00
       N17          N  0.0568365  0.4857863  0.9991389    0.00000       Uiso       1.00
      H117          H  0.0357480  0.4924208  0.9875075    0.00000       Uiso       1.00
      H118          H  0.0657885  0.5002667  0.0050087    0.00000       Uiso       1.00
       N18          N  0.8527278  0.4855621  0.9993570    0.00000       Uiso       1.00
      H119          H  0.8555531  0.4922011  0.9877220    0.00000       Uiso       1.00
      H120          H  0.8702709  0.4838373  0.0171649    0.00000       Uiso       1.00
       N19          N  0.8812789  0.6615117  0.9382298    0.00000       Uiso       1.00
      H121          H  0.8879054  0.6404055  0.9353991    0.00000       Uiso       1.00
      H122          H  0.8957438  0.6704667  0.9557785    0.00000       Uiso       1.00
       N20          N  0.8811236  0.4573350  0.7337478    0.00000       Uiso       1.00
      H123          H  0.8877464  0.4601505  0.7548308    0.00000       Uiso       1.00
      H124          H  0.8794059  0.4748985  0.7317669    0.00000       Uiso       1.00
      C141          C  0.0245023  0.4550663  0.9405679    0.00000       Uiso       1.00
      C142          C  0.0102721  0.4488145  0.9106954    0.00000       Uiso       1.00
      C143          C  0.9800822  0.4592015  0.8992657    0.00000       Uiso       1.00
      C144          C  0.0076255  0.4724585  0.9586916    0.00000       Uiso       1.00
      C145          C  0.9775981  0.4833066  0.9473842    0.00000       Uiso       1.00
      C146          C  0.9629731  0.4765882  0.9174066    0.00000       Uiso       1.00
      H125          H  0.9147089  0.5749996  0.9424457    0.00000       Uiso       1.00
      H126          H  0.8923345  0.5002857  0.8248303    0.00000       Uiso       1.00
      H127          H  0.0174462  0.4771535  0.9817533    0.00000       Uiso       1.00
      C147          C  0.8503770  0.6291309  0.9337177    0.00000       Uiso       1.00
      C148          C  0.8802339  0.6148073  0.9430984    0.00000       Uiso       1.00
      C149          C  0.8915735  0.5845943  0.9347773    0.00000       Uiso       1.00
      C150          C  0.8321785  0.6123224  0.9161492    0.00000       Uiso       1.00
      C151          C  0.8433927  0.5822801  0.9083419    0.00000       Uiso       1.00
      C152          C  0.8733524  0.5675570  0.9169670    0.00000       Uiso       1.00
      H128          H  0.9705598  0.4532620  0.8761282    0.00000       Uiso       1.00
      H129          H  0.8482602  0.5191541  0.9420179    0.00000       Uiso       1.00
      H130          H  0.8949113  0.6270030  0.9569424    0.00000       Uiso       1.00
      C153          C  0.8504659  0.4616873  0.7660990    0.00000       Uiso       1.00
      C154          C  0.8441809  0.4522738  0.7803079    0.00000       Uiso       1.00
      C155          C  0.8546441  0.4605190  0.8104953    0.00000       Uiso       1.00
      C156          C  0.8679886  0.4791727  0.7830102    0.00000       Uiso       1.00
      C157          C  0.8789065  0.4869153  0.8130284    0.00000       Uiso       1.00
      C158          C  0.8721358  0.4782816  0.8276320    0.00000       Uiso       1.00
      H131          H  0.8955954  0.4327612  0.8984415    0.00000       Uiso       1.00
      H132          H  0.9658124  0.4966556  0.9623919    0.00000       Uiso       1.00
      H133          H  0.8727339  0.4877332  0.7732307    0.00000       Uiso       1.00
      C159          C  0.8571390  0.4547166  0.9405548    0.00000       Uiso       1.00
      C160          C  0.8745843  0.4365456  0.9229878    0.00000       Uiso       1.00
      C161          C  0.8822627  0.4478110  0.9118987    0.00000       Uiso       1.00
      C162          C  0.8477362  0.4846086  0.9467402    0.00000       Uiso       1.00
      C163          C  0.8559300  0.4959984  0.9361133    0.00000       Uiso       1.00
      C164          C  0.8736390  0.4778016  0.9185622    0.00000       Uiso       1.00
      H134          H  0.8486720  0.4528413  0.8200032    0.00000       Uiso       1.00
      H135          H  0.8283311  0.5705550  0.8949350    0.00000       Uiso       1.00
      H136          H  0.8339723  0.4992773  0.9598532    0.00000       Uiso       1.00
       N21          N  0.0273698  0.4306869  0.8902861    0.00000       Uiso       1.00
      H137          H  0.0137414  0.4283967  0.8697955    0.00000       Uiso       1.00
      H138          H  0.0392351  0.4110715  0.8926350    0.00000       Uiso       1.00
       N22          N  0.8865694  0.4042979  0.9164756    0.00000       Uiso       1.00
      H139          H  0.8984784  0.3949584  0.9036219    0.00000       Uiso       1.00
      H140          H  0.8701516  0.3964912  0.9063922    0.00000       Uiso       1.00
       N23          N  0.7999651  0.6261284  0.9041843    0.00000       Uiso       1.00
      H141          H  0.7905997  0.6107178  0.8921736    0.00000       Uiso       1.00
      H142          H  0.7956118  0.6367294  0.8917853    0.00000       Uiso       1.00
       N24          N  0.8259335  0.4330050  0.7631903    0.00000       Uiso       1.00
      H143          H  0.8236324  0.4283979  0.7767966    0.00000       Uiso       1.00
      H144          H  0.8356225  0.4145289  0.7498932    0.00000       Uiso       1.00
      C165          C  0.8725221  0.4786569  0.8736714    0.00000       Uiso       1.00
      C166          C  0.9184386  0.5214331  0.9165244    0.00000       Uiso       1.00
      C167          C  0.8841776  0.4893388  0.9071557    0.00000       Uiso       1.00
      C168          C  0.8740941  0.5229779  0.9180580    0.00000       Uiso       1.00
      H145          H  0.8501520  0.5315587  0.9108929    0.00000       Uiso       1.00
      H146          H  0.8822790  0.5313610  0.9420456    0.00000       Uiso       1.00
      C169          C  0.8834661  0.4887737  0.8610875    0.00000       Uiso       1.00
      C170          C  0.9169438  0.4770645  0.8722181    0.00000       Uiso       1.00
      H147          H  0.9243446  0.4530556  0.8638195    0.00000       Uiso       1.00
      H148          H  0.9252014  0.4842370  0.8636964    0.00000       Uiso       1.00
      C171          C  0.9295256  0.4879441  0.9058259    0.00000       Uiso       1.00
      H149          H  0.9269672  0.5296485  0.9404613    0.00000       Uiso       1.00
      C172          C  0.9176860  0.4777667  0.9173269    0.00000       Uiso       1.00
      H150          H  0.9257844  0.4851742  0.9412559    0.00000       Uiso       1.00
      H151          H  0.9260678  0.4538138  0.9098815    0.00000       Uiso       1.00
      C173          C  0.8733175  0.5223020  0.8729116    0.00000       Uiso       1.00
      H152          H  0.9268647  0.5288382  0.9083516    0.00000       Uiso       1.00
      C174          C  0.8848363  0.5340829  0.9064097    0.00000       Uiso       1.00
      H153          H  0.8807697  0.5307098  0.8648242    0.00000       Uiso       1.00
      H154          H  0.8493829  0.5304377  0.8645133    0.00000       Uiso       1.00
      H155          H  0.8485296  0.4868776  0.8662549    0.00000       Uiso       1.00
      H156          H  0.8796656  0.4546998  0.8654327    0.00000       Uiso       1.00
      C175          C  0.4159270  0.8427134  0.9789748    0.00000       Uiso       1.00
      C176          C  0.4435572  0.8448275  0.9937467    0.00000       Uiso       1.00
      C177          C  0.4562107  0.8491061  0.9811292    0.00000       Uiso       1.00
      C178          C  0.4011483  0.8448498  0.9513521    0.00000       Uiso       1.00
      C179          C  0.4137664  0.8491284  0.9386992    0.00000       Uiso       1.00
      C180          C  0.4421072  0.8503125  0.9527959    0.00000       Uiso       1.00
      H157          H  0.3786241  0.8431017  0.9389671    0.00000       Uiso       1.00
      H158          H  0.4559467  0.8430626  0.0162651    0.00000       Uiso       1.00
      C181          C  0.7204504  0.8125226  0.9486919    0.00000       Uiso       1.00
      C182          C  0.7054833  0.7977275  0.9465745    0.00000       Uiso       1.00
      C183          C  0.6759457  0.8103570  0.9423193    0.00000       Uiso       1.00
      C184          C  0.7054769  0.8401808  0.9465825    0.00000       Uiso       1.00
      C185          C  0.6759394  0.8528457  0.9423273    0.00000       Uiso       1.00
      C186          C  0.6605163  0.8387256  0.9411396    0.00000       Uiso       1.00
      H159          H  0.7173601  0.8525851  0.9483337    0.00000       Uiso       1.00
      H160          H  0.7173716  0.7751804  0.9483191    0.00000       Uiso       1.00
      C187          C  0.4460208  0.8124792  0.6739814    0.00000       Uiso       1.00
      C188          C  0.4481339  0.8401284  0.6889527    0.00000       Uiso       1.00
      C189          C  0.4523949  0.8527755  0.7184846    0.00000       Uiso       1.00
      C190          C  0.4481403  0.7976751  0.6889448    0.00000       Uiso       1.00
      C191          C  0.4524012  0.8102868  0.7184767    0.00000       Uiso       1.00
      C192          C  0.4535846  0.8386467  0.7339042    0.00000       Uiso       1.00
      H161          H  0.4006835  0.0623946  0.9181983    0.00000       Uiso       1.00
      H162          H  0.4008998  0.8521625  0.9179713    0.00000       Uiso       1.00
      H163          H  0.4463927  0.7751352  0.6770580    0.00000       Uiso       1.00
      H164          H  0.4463812  0.8525398  0.6770726    0.00000       Uiso       1.00
      C193          C  0.4157010  0.1178037  0.9792140    0.00000       Uiso       1.00
      C194          C  0.4009249  0.1028356  0.9515881    0.00000       Uiso       1.00
      C195          C  0.4135481  0.0732804  0.9389290    0.00000       Uiso       1.00
      C196          C  0.4433338  0.1028134  0.9939827    0.00000       Uiso       1.00
      C197          C  0.4559923  0.0732581  0.9813589    0.00000       Uiso       1.00
      C198          C  0.4418913  0.0578342  0.9530224    0.00000       Uiso       1.00
      H165          H  0.4554104  0.8735244  0.7293728    0.00000       Uiso       1.00
      H166          H  0.6650496  0.8736018  0.9393148    0.00000       Uiso       1.00
      H167          H  0.4557212  0.1146986  0.0165037    0.00000       Uiso       1.00
      H168          H  0.3783986  0.1147377  0.9392056    0.00000       Uiso       1.00
       N25          N  0.4851913  0.8533224  0.9991059    0.00000       Uiso       1.00
      H169          H  0.4918142  0.8561612  0.9874697    0.00000       Uiso       1.00
      H170          H  0.4996590  0.8357516  0.0049689    0.00000       Uiso       1.00
       N26          N  0.4849758  0.0580179  0.9993320    0.00000       Uiso       1.00
      H171          H  0.4916022  0.0369179  0.9876912    0.00000       Uiso       1.00
      H172          H  0.4832592  0.0599933  0.0171433    0.00000       Uiso       1.00
       N27          N  0.6607316  0.7923547  0.9380998    0.00000       Uiso       1.00
      H173          H  0.6396423  0.8040029  0.9352794    0.00000       Uiso       1.00
      H174          H  0.6696877  0.7864686  0.9556466    0.00000       Uiso       1.00
       N28          N  0.4566230  0.7922744  0.7336866    0.00000       Uiso       1.00
      H175          H  0.4594477  0.8039100  0.7547720    0.00000       Uiso       1.00
      H176          H  0.4741698  0.7744467  0.7316962    0.00000       Uiso       1.00
      C199          C  0.4544671  0.8578444  0.9405414    0.00000       Uiso       1.00
      C200          C  0.4482048  0.8484704  0.9106670    0.00000       Uiso       1.00
      C201          C  0.4585771  0.8568653  0.8992308    0.00000       Uiso       1.00
      C202          C  0.4718546  0.8754584  0.9586599    0.00000       Uiso       1.00
      C203          C  0.4826877  0.8833518  0.9473458    0.00000       Uiso       1.00
      C204          C  0.4759591  0.8747347  0.9173667    0.00000       Uiso       1.00
      H177          H  0.5742981  0.8496413  0.9423607    0.00000       Uiso       1.00
      H178          H  0.4995860  0.8291637  0.8247633    0.00000       Uiso       1.00
      H179          H  0.4765579  0.8839925  0.9817231    0.00000       Uiso       1.00
      C205          C  0.6283783  0.8511531  0.9336050    0.00000       Uiso       1.00
      C206          C  0.6140718  0.8449796  0.9429939    0.00000       Uiso       1.00
      C207          C  0.5838807  0.8555299  0.9346866    0.00000       Uiso       1.00
      C208          C  0.6115757  0.8686104  0.9160428    0.00000       Uiso       1.00
      C209          C  0.5815555  0.8796294  0.9082494    0.00000       Uiso       1.00
      C210          C  0.5668493  0.8729970  0.9168826    0.00000       Uiso       1.00
      H180          H  0.4526303  0.8492017  0.8760924    0.00000       Uiso       1.00
      H181          H  0.5185049  0.9715633  0.9419646    0.00000       Uiso       1.00
      H182          H  0.6262637  0.8319358  0.9568336    0.00000       Uiso       1.00
      C211          C  0.4609908  0.8509459  0.7660427    0.00000       Uiso       1.00
      C212          C  0.4515940  0.8808565  0.7802595    0.00000       Uiso       1.00
      C213          C  0.4598482  0.8923211  0.8104478    0.00000       Uiso       1.00
      C214          C  0.4784693  0.8328308  0.7829474    0.00000       Uiso       1.00
      C215          C  0.4862214  0.8441738  0.8129666    0.00000       Uiso       1.00
      C216          C  0.4776039  0.8741854  0.8275778    0.00000       Uiso       1.00
      H183          H  0.4321632  0.9670323  0.8984236    0.00000       Uiso       1.00
      H184          H  0.4960336  0.8967996  0.9623497    0.00000       Uiso       1.00
      H185          H  0.4870165  0.8097427  0.7731613    0.00000       Uiso       1.00
      C217          C  0.4541248  0.0256626  0.9405347    0.00000       Uiso       1.00
      C218          C  0.4359596  0.0088149  0.9229733    0.00000       Uiso       1.00
      C219          C  0.4472075  0.9787771  0.9118759    0.00000       Uiso       1.00
      C220          C  0.4839938  0.0113598  0.9467059    0.00000       Uiso       1.00
      C221          C  0.4953664  0.9811438  0.9360708    0.00000       Uiso       1.00
      C222          C  0.4771753  0.9640741  0.9185253    0.00000       Uiso       1.00
      H186          H  0.4521830  0.9154825  0.8199618    0.00000       Uiso       1.00
      H187          H  0.5698340  0.8930240  0.8948466    0.00000       Uiso       1.00
      H188          H  0.4986572  0.0235730  0.9598142    0.00000       Uiso       1.00
       N29          N  0.4300813  0.8290855  0.8902627    0.00000       Uiso       1.00
      H189          H  0.4277822  0.8245274  0.8697701    0.00000       Uiso       1.00
      H190          H  0.4104844  0.8391785  0.8926219    0.00000       Uiso       1.00
       N30          N  0.4037367  0.0225629  0.9164763    0.00000       Uiso       1.00
      H191          H  0.3943979  0.0071351  0.9036247    0.00000       Uiso       1.00
      H192          H  0.3959320  0.0367187  0.9063959    0.00000       Uiso       1.00
       N31          N  0.6253638  0.8750761  0.9040696    0.00000       Uiso       1.00
      H193          H  0.6099606  0.8878525  0.8920650    0.00000       Uiso       1.00
      H194          H  0.6359484  0.8564332  0.8916629    0.00000       Uiso       1.00
       N32          N  0.4323334  0.9012744  0.7631496    0.00000       Uiso       1.00
      H195          H  0.4277382  0.9217885  0.7767609    0.00000       Uiso       1.00
      H196          H  0.4138660  0.8967628  0.7498593    0.00000       Uiso       1.00
      C223          C  0.4780047  0.9194539  0.8736255    0.00000       Uiso       1.00
      C224          C  0.5207649  0.8735671  0.9164624    0.00000       Uiso       1.00
      C225          C  0.4886954  0.9305847  0.9071102    0.00000       Uiso       1.00
      C226          C  0.5223109  0.9179314  0.9179972    0.00000       Uiso       1.00
      H197          H  0.5308807  0.9261447  0.9108272    0.00000       Uiso       1.00
      H198          H  0.5306996  0.9253393  0.9419846    0.00000       Uiso       1.00
      C227          C  0.4881049  0.8858025  0.8610337    0.00000       Uiso       1.00
      C228          C  0.4764113  0.8751404  0.8721713    0.00000       Uiso       1.00
      H199          H  0.4524189  0.8833499  0.8637835    0.00000       Uiso       1.00
      H200          H  0.4835723  0.8511832  0.8636439    0.00000       Uiso       1.00
      C229          C  0.4872994  0.8852698  0.9057789    0.00000       Uiso       1.00
      H201          H  0.5289860  0.8807483  0.9403992    0.00000       Uiso       1.00
      C230          C  0.4771382  0.9187955  0.9172881    0.00000       Uiso       1.00
      H202          H  0.4845521  0.9272074  0.9412174    0.00000       Uiso       1.00
      H203          H  0.4532022  0.9269204  0.9098535    0.00000       Uiso       1.00
      C231          C  0.5216102  0.8742466  0.8728427    0.00000       Uiso       1.00
      H204          H  0.5281585  0.8495576  0.9082839    0.00000       Uiso       1.00
      C232          C  0.5333989  0.8844289  0.9063405    0.00000       Uiso       1.00
      H205          H  0.5300057  0.8502942  0.8647491    0.00000       Uiso       1.00
      H206          H  0.5297348  0.8816648  0.8644395    0.00000       Uiso       1.00
      H207          H  0.4862148  0.9278265  0.8662043    0.00000       Uiso       1.00
      H208          H  0.4540642  0.9280289  0.8653976    0.00000       Uiso       1.00
      C233          C  0.4158872  0.1175833  0.5526601    0.00000       Uiso       1.00
      C234          C  0.4435199  0.1026050  0.5505363    0.00000       Uiso       1.00
      C235          C  0.4561784  0.0730438  0.5462669    0.00000       Uiso       1.00
      C236          C  0.4011110  0.1025971  0.5505427    0.00000       Uiso       1.00
      C237          C  0.4137342  0.0730359  0.5462732    0.00000       Uiso       1.00
      C238          C  0.4420774  0.0576006  0.5450787    0.00000       Uiso       1.00
      H209          H  0.3785848  0.1144891  0.5522988    0.00000       Uiso       1.00
      H210          H  0.4559085  0.1145035  0.5522873    0.00000       Uiso       1.00
      C239          C  0.7204506  0.8127812  0.5827889    0.00000       Uiso       1.00
      C240          C  0.7054772  0.8404273  0.5975720    0.00000       Uiso       1.00
      C241          C  0.6759396  0.8530981  0.5849624    0.00000       Uiso       1.00
      C242          C  0.7054835  0.7980042  0.5551631    0.00000       Uiso       1.00
      C243          C  0.6759459  0.8106397  0.5425181    0.00000       Uiso       1.00
      C244          C  0.6605164  0.8389974  0.5566265    0.00000       Uiso       1.00
      H211          H  0.7173718  0.7754672  0.5427690    0.00000       Uiso       1.00
      H212          H  0.7173603  0.8528169  0.6200928    0.00000       Uiso       1.00
      C245          C  0.4460208  0.8125439  0.5830176    0.00000       Uiso       1.00
      C246          C  0.4481403  0.7977701  0.5553892    0.00000       Uiso       1.00
      C247          C  0.4524013  0.8104119  0.5427392    0.00000       Uiso       1.00
      C248          C  0.4481340  0.8401932  0.5977981    0.00000       Uiso       1.00
      C249          C  0.4523949  0.8528703  0.5851835    0.00000       Uiso       1.00
      C250          C  0.4535847  0.8387727  0.5568450    0.00000       Uiso       1.00
      H213          H  0.4007143  0.8524285  0.3332426    0.00000       Uiso       1.00
      H214          H  0.4008696  0.0621375  0.5432551    0.00000       Uiso       1.00
      H215          H  0.4463812  0.8525802  0.6203210    0.00000       Uiso       1.00
      H216          H  0.4463928  0.7752306  0.5429972    0.00000       Uiso       1.00
      C251          C  0.4157415  0.8430622  0.2778572    0.00000       Uiso       1.00
      C252          C  0.4009628  0.8451682  0.2928263    0.00000       Uiso       1.00
      C253          C  0.4135809  0.8494169  0.3223554    0.00000       Uiso       1.00
      C254          C  0.4433717  0.8451761  0.2928199    0.00000       Uiso       1.00
      C255          C  0.4560252  0.8494247  0.3223490    0.00000       Uiso       1.00
      C256          C  0.4419217  0.8506001  0.3377737    0.00000       Uiso       1.00
      H217          H  0.4554218  0.7975475  0.5220059    0.00000       Uiso       1.00
      H218          H  0.6650611  0.7977727  0.5217869    0.00000       Uiso       1.00
      H219          H  0.4557624  0.8434341  0.2809350    0.00000       Uiso       1.00
      H220          H  0.3784386  0.8434197  0.2809466    0.00000       Uiso       1.00
       N33          N  0.4851620  0.0578194  0.5420412    0.00000       Uiso       1.00
      H221          H  0.4917884  0.0367131  0.5392105    0.00000       Uiso       1.00
      H222          H  0.4996269  0.0667743  0.5595899    0.00000       Uiso       1.00
       N34          N  0.4850058  0.8536430  0.3375595    0.00000       Uiso       1.00
      H223          H  0.4916286  0.8564585  0.3586425    0.00000       Uiso       1.00
      H224          H  0.4832881  0.8712065  0.3355786    0.00000       Uiso       1.00
       N35          N  0.6607184  0.8820941  0.6029504    0.00000       Uiso       1.00
      H225          H  0.6396299  0.8887286  0.5913191    0.00000       Uiso       1.00
      H226          H  0.6696715  0.8965730  0.6088198    0.00000       Uiso       1.00
       N36          N  0.4566098  0.8818699  0.6031685    0.00000       Uiso       1.00
      H227          H  0.4594352  0.8885089  0.5915336    0.00000       Uiso       1.00
      H228          H  0.4741541  0.8801436  0.6209760    0.00000       Uiso       1.00
      C257          C  0.4544433  0.0254442  0.5375593    0.00000       Uiso       1.00
      C258          C  0.4481816  0.0111903  0.5469400    0.00000       Uiso       1.00
      C259          C  0.4585589  0.9809787  0.5385582    0.00000       Uiso       1.00
      C260          C  0.4718359  0.0085682  0.5199515    0.00000       Uiso       1.00
      C261          C  0.4826738  0.9785191  0.5120706    0.00000       Uiso       1.00
      C262          C  0.4759460  0.9638703  0.5206954    0.00000       Uiso       1.00
      H229          H  0.5742885  0.9155708  0.5457346    0.00000       Uiso       1.00
      H230          H  0.4995767  0.8931332  0.5662637    0.00000       Uiso       1.00
      H231          H  0.4765391  0.0184068  0.5114136    0.00000       Uiso       1.00
      C263          C  0.6283786  0.8511907  0.5442208    0.00000       Uiso       1.00
      C264          C  0.6140666  0.8810697  0.5503850    0.00000       Uiso       1.00
      C265          C  0.5838755  0.8924186  0.5398546    0.00000       Uiso       1.00
      C266          C  0.6115812  0.8329800  0.5267935    0.00000       Uiso       1.00
      C267          C  0.5815610  0.8442036  0.5157946    0.00000       Uiso       1.00
      C268          C  0.5668495  0.8741850  0.5224177    0.00000       Uiso       1.00
      H232          H  0.4526123  0.9714389  0.5462268    0.00000       Uiso       1.00
      H233          H  0.5185234  0.8491205  0.4239487    0.00000       Uiso       1.00
      H234          H  0.6262544  0.8957573  0.5634062    0.00000       Uiso       1.00
      C269          C  0.4609908  0.8512232  0.5445407    0.00000       Uiso       1.00
      C270          C  0.4515994  0.8449498  0.5146554    0.00000       Uiso       1.00
      C271          C  0.4598539  0.8554350  0.5031857    0.00000       Uiso       1.00
      C272          C  0.4784642  0.8687574  0.5626254    0.00000       Uiso       1.00
      C273          C  0.4862163  0.8796974  0.5512774    0.00000       Uiso       1.00
      C274          C  0.4776042  0.8729380  0.5212909    0.00000       Uiso       1.00
      H235          H  0.4321740  0.8964730  0.4285108    0.00000       Uiso       1.00
      H236          H  0.4960235  0.9667351  0.4986270    0.00000       Uiso       1.00
      H237          H  0.4870071  0.8734940  0.5856932    0.00000       Uiso       1.00
      C275          C  0.4541493  0.8580254  0.3699164    0.00000       Uiso       1.00
      C276          C  0.4359789  0.8754709  0.3867584    0.00000       Uiso       1.00
      C277          C  0.4472221  0.8831398  0.4167691    0.00000       Uiso       1.00
      C278          C  0.4840175  0.8486127  0.3841965    0.00000       Uiso       1.00
      C279          C  0.4953852  0.8567973  0.4143848    0.00000       Uiso       1.00
      C280          C  0.4771890  0.8745066  0.4314486    0.00000       Uiso       1.00
      H238          H  0.4521931  0.8494705  0.4800448    0.00000       Uiso       1.00
      H239          H  0.5698438  0.8291318  0.5024227    0.00000       Uiso       1.00
      H240          H  0.4986849  0.8348480  0.3719869    0.00000       Uiso       1.00
       N37          N  0.4300527  0.0282860  0.5663180    0.00000       Uiso       1.00
      H241          H  0.4277549  0.0146394  0.5708824    0.00000       Uiso       1.00
      H242          H  0.4104555  0.0401644  0.5562373    0.00000       Uiso       1.00
       N38          N  0.4037564  0.8874675  0.3730331    0.00000       Uiso       1.00
      H243          H  0.3944135  0.8993748  0.3884529    0.00000       Uiso       1.00
      H244          H  0.3959562  0.8710400  0.3588985    0.00000       Uiso       1.00
       N39          N  0.6253751  0.8007420  0.5203387    0.00000       Uiso       1.00
      H245          H  0.6099752  0.7913707  0.5075842    0.00000       Uiso       1.00
      H246          H  0.6359576  0.7963745  0.5389670    0.00000       Uiso       1.00
       N40          N  0.4323447  0.8266913  0.4942707    0.00000       Uiso       1.00
      H247          H  0.4277529  0.8244010  0.4737717    0.00000       Uiso       1.00
      H248          H  0.4138752  0.8363810  0.4987873    0.00000       Uiso       1.00
      C281          C  0.4780118  0.8733571  0.4760455    0.00000       Uiso       1.00
      C282          C  0.5207583  0.9193034  0.5218555    0.00000       Uiso       1.00
      C283          C  0.4887024  0.8850363  0.4649072    0.00000       Uiso       1.00
      C284          C  0.5223175  0.8749446  0.4775365    0.00000       Uiso       1.00
      H249          H  0.5308922  0.8509861  0.4693342    0.00000       Uiso       1.00
      H250          H  0.5307061  0.8831461  0.4701225    0.00000       Uiso       1.00
      C285          C  0.4881054  0.8842919  0.5096668    0.00000       Uiso       1.00
      C286          C  0.4764051  0.9177933  0.5203137    0.00000       Uiso       1.00
      H251          H  0.4524128  0.9251996  0.5121208    0.00000       Uiso       1.00
      H252          H  0.4835614  0.9260449  0.5442493    0.00000       Uiso       1.00
      C287          C  0.4872930  0.9303991  0.5101758    0.00000       Uiso       1.00
      H253          H  0.5289793  0.9278488  0.5146680    0.00000       Uiso       1.00
      C288          C  0.4771385  0.9185676  0.4766805    0.00000       Uiso       1.00
      H254          H  0.4845525  0.9266829  0.4682639    0.00000       Uiso       1.00
      H255          H  0.4532025  0.9269558  0.4685717    0.00000       Uiso       1.00
      C289          C  0.5216104  0.8741359  0.5211993    0.00000       Uiso       1.00
      H256          H  0.5281471  0.9277238  0.5458431    0.00000       Uiso       1.00
      C290          C  0.5333990  0.8856778  0.5110084    0.00000       Uiso       1.00
      H257          H  0.5300012  0.8815816  0.5451296    0.00000       Uiso       1.00
      H258          H  0.5297397  0.8501841  0.5137922    0.00000       Uiso       1.00
      H259          H  0.4862267  0.8493482  0.4676844    0.00000       Uiso       1.00
      H260          H  0.4540716  0.8805062  0.4674874    0.00000       Uiso       1.00
      C291          C  0.8423727  0.1173594  0.9789641    0.00000       Uiso       1.00
      C292          C  0.8444922  0.1023643  0.9937367    0.00000       Uiso       1.00
      C293          C  0.8487594  0.0728075  0.9811141    0.00000       Uiso       1.00
      C294          C  0.8444923  0.1023944  0.9513358    0.00000       Uiso       1.00
      C295          C  0.8487594  0.0728376  0.9386778    0.00000       Uiso       1.00
      C296          C  0.8499494  0.0573864  0.9527754    0.00000       Uiso       1.00
      H261          H  0.8427395  0.1143003  0.9389502    0.00000       Uiso       1.00
      H262          H  0.8427383  0.1142468  0.0162598    0.00000       Uiso       1.00
      C297          C  0.8121800  0.8125380  0.9486800    0.00000       Uiso       1.00
      C298          C  0.7973974  0.8401961  0.9465705    0.00000       Uiso       1.00
      C299          C  0.8100143  0.8528689  0.9423090    0.00000       Uiso       1.00
      C300          C  0.8398126  0.7977507  0.9465562    0.00000       Uiso       1.00
      C301          C  0.8524649  0.8103881  0.9422947    0.00000       Uiso       1.00
      C302          C  0.8383574  0.8387569  0.9411147    0.00000       Uiso       1.00
      H263          H  0.8522065  0.7752038  0.9483007    0.00000       Uiso       1.00
      H264          H  0.7748712  0.8525940  0.9483268    0.00000       Uiso       1.00
      C303          C  0.8119925  0.8125474  0.6739283    0.00000       Uiso       1.00
      C304          C  0.8396252  0.7977480  0.6888879    0.00000       Uiso       1.00
      C305          C  0.8522774  0.8103613  0.7184185    0.00000       Uiso       1.00
      C306          C  0.7972100  0.8401933  0.6889022    0.00000       Uiso       1.00
      C307          C  0.8098268  0.8528420  0.7184328    0.00000       Uiso       1.00
      C308          C  0.8381699  0.8387183  0.7338483    0.00000       Uiso       1.00
      H265          H  0.0618231  0.8521354  0.9180616    0.00000       Uiso       1.00
      H266          H  0.8517797  0.0619548  0.9179449    0.00000       Uiso       1.00
      H267          H  0.7746837  0.8526010  0.6770252    0.00000       Uiso       1.00
      H268          H  0.8520190  0.7752107  0.6769991    0.00000       Uiso       1.00
      C309          C  0.1172162  0.8426938  0.9790590    0.00000       Uiso       1.00
      C310          C  0.1022466  0.8448302  0.9514364    0.00000       Uiso       1.00
      C311          C  0.0727102  0.8491009  0.9387898    0.00000       Uiso       1.00
      C312          C  0.1022465  0.8448000  0.9938373    0.00000       Uiso       1.00
      C313          C  0.0727102  0.8490707  0.9812262    0.00000       Uiso       1.00
      C314          C  0.0572848  0.8502769  0.9528931    0.00000       Uiso       1.00
      H269          H  0.8730137  0.7974777  0.7292978    0.00000       Uiso       1.00
      H270          H  0.8732012  0.7975144  0.9392712    0.00000       Uiso       1.00
      H271          H  0.1141306  0.8430349  0.0163559    0.00000       Uiso       1.00
      H272          H  0.1141318  0.8430884  0.9390462    0.00000       Uiso       1.00
       N41          N  0.8529809  0.0575626  0.9990909    0.00000       Uiso       1.00
      H273          H  0.8558103  0.0364619  0.9874507    0.00000       Uiso       1.00
      H274          H  0.8354260  0.0665214  0.0049636    0.00000       Uiso       1.00
       N42          N  0.0574927  0.8532788  0.9992095    0.00000       Uiso       1.00
      H275          H  0.0364048  0.8561124  0.9875774    0.00000       Uiso       1.00
      H276          H  0.0594737  0.8708304  0.0170233    0.00000       Uiso       1.00
       N43          N  0.7920264  0.8818801  0.9380987    0.00000       Uiso       1.00
      H277          H  0.8036634  0.8885145  0.9352725    0.00000       Uiso       1.00
      H278          H  0.7861551  0.8963479  0.9556515    0.00000       Uiso       1.00
       N44          N  0.7918389  0.8818395  0.7336550    0.00000       Uiso       1.00
      H279          H  0.8034758  0.8884568  0.7547380    0.00000       Uiso       1.00
      H280          H  0.7740254  0.8801206  0.7316729    0.00000       Uiso       1.00
      C315          C  0.8574671  0.0252325  0.9405141    0.00000       Uiso       1.00
      C316          C  0.8480850  0.0110059  0.9106393    0.00000       Uiso       1.00
      C317          C  0.8564648  0.9807962  0.8991962    0.00000       Uiso       1.00
      C318          C  0.8750749  0.0083311  0.9586262    0.00000       Uiso       1.00
      C319          C  0.8829536  0.9782839  0.9473054    0.00000       Uiso       1.00
      C320          C  0.8743277  0.9636623  0.9173255    0.00000       Uiso       1.00
      H281          H  0.8492672  0.9153398  0.9423335    0.00000       Uiso       1.00
      H282          H  0.8287446  0.8930106  0.8247277    0.00000       Uiso       1.00
      H283          H  0.8836141  0.0181479  0.9816890    0.00000       Uiso       1.00
      C321          C  0.8507707  0.8509551  0.9335734    0.00000       Uiso       1.00
      C322          C  0.8446086  0.8808334  0.9429678    0.00000       Uiso       1.00
      C323          C  0.8551459  0.8921882  0.9346546    0.00000       Uiso       1.00
      C324          C  0.8682031  0.8327509  0.9159994    0.00000       Uiso       1.00
      C325          C  0.8792089  0.8439798  0.9081998    0.00000       Uiso       1.00
      C326          C  0.8725879  0.8739613  0.9168388    0.00000       Uiso       1.00
      H284          H  0.8487952  0.9712780  0.8760577    0.00000       Uiso       1.00
      H285          H  0.9710817  0.8488362  0.9418755    0.00000       Uiso       1.00
      H286          H  0.8315837  0.8955156  0.9568165    0.00000       Uiso       1.00
      C327          C  0.8504758  0.8511382  0.7659861    0.00000       Uiso       1.00
      C328          C  0.8803680  0.8448406  0.7801902    0.00000       Uiso       1.00
      C329          C  0.8918389  0.8552969  0.8103780    0.00000       Uiso       1.00
      C330          C  0.8323857  0.8686665  0.7829028    0.00000       Uiso       1.00
      C331          C  0.8437353  0.8795778  0.8129215    0.00000       Uiso       1.00
      C332          C  0.8737283  0.8727938  0.8275200    0.00000       Uiso       1.00
      H287          H  0.9665335  0.8962381  0.8983319    0.00000       Uiso       1.00
      H288          H  0.8963972  0.9664797  0.9623045    0.00000       Uiso       1.00
      H289          H  0.8093126  0.8734207  0.7731268    0.00000       Uiso       1.00
      C333          C  0.0251345  0.8577258  0.9404194    0.00000       Uiso       1.00
      C334          C  0.0082928  0.8751960  0.9228643    0.00000       Uiso       1.00
      C335          C  0.9782748  0.8828864  0.9117801    0.00000       Uiso       1.00
      C336          C  0.0108470  0.8483105  0.9465981    0.00000       Uiso       1.00
      C337          C  0.9806512  0.8565165  0.9359764    0.00000       Uiso       1.00
      C338          C  0.9635876  0.8742507  0.9184373    0.00000       Uiso       1.00
      H290          H  0.9149851  0.8493149  0.8198819    0.00000       Uiso       1.00
      H291          H  0.8925845  0.8289127  0.8947879    0.00000       Uiso       1.00
      H292          H  0.0230560  0.8345274  0.9597019    0.00000       Uiso       1.00
       N45          N  0.8287067  0.0281297  0.8902421    0.00000       Uiso       1.00
      H293          H  0.8241413  0.0145005  0.8697481    0.00000       Uiso       1.00
      H294          H  0.8387927  0.0400048  0.8925972    0.00000       Uiso       1.00
       N46          N  0.0220259  0.8871961  0.9163601    0.00000       Uiso       1.00
      H295          H  0.0066052  0.8991223  0.9035145    0.00000       Uiso       1.00
      H296          H  0.0361638  0.8707697  0.9062706    0.00000       Uiso       1.00
       N47          N  0.8746558  0.8005154  0.9040200    0.00000       Uiso       1.00
      H297          H  0.8874146  0.7911488  0.8920071    0.00000       Uiso       1.00
      H298          H  0.8560222  0.7961646  0.8916204    0.00000       Uiso       1.00
       N48          N  0.9007586  0.8265873  0.7630671    0.00000       Uiso       1.00
      H299          H  0.9212621  0.8242773  0.7766704    0.00000       Uiso       1.00
      H300          H  0.8962443  0.8362923  0.7497775    0.00000       Uiso       1.00
      C339          C  0.9189821  0.8731563  0.8735525    0.00000       Uiso       1.00
      C340          C  0.8731589  0.9190882  0.9164199    0.00000       Uiso       1.00
      C341          C  0.9301214  0.8848039  0.9070371    0.00000       Uiso       1.00
      C342          C  0.9174843  0.8747047  0.9179317    0.00000       Uiso       1.00
      H301          H  0.9256859  0.8507455  0.9107556    0.00000       Uiso       1.00
      H302          H  0.9248987  0.8828838  0.9419193    0.00000       Uiso       1.00
      C343          C  0.8853535  0.8841159  0.8609756    0.00000       Uiso       1.00
      C344          C  0.8747076  0.9176171  0.8721213    0.00000       Uiso       1.00
      H303          H  0.8829059  0.9250295  0.8637285    0.00000       Uiso       1.00
      H304          H  0.8507668  0.9258860  0.8636045    0.00000       Uiso       1.00
      C345          C  0.8848463  0.9301917  0.9057297    0.00000       Uiso       1.00
      H305          H  0.8803468  0.9276114  0.9403571    0.00000       Uiso       1.00
      C346          C  0.9183489  0.9183362  0.9172236    0.00000       Uiso       1.00
      H306          H  0.9267663  0.9264287  0.9411528    0.00000       Uiso       1.00
      H307          H  0.9264632  0.9267300  0.9097843    0.00000       Uiso       1.00
      C347          C  0.8738133  0.8739513  0.8727916    0.00000       Uiso       1.00
      H308          H  0.8491660  0.9275256  0.9082522    0.00000       Uiso       1.00
      C348          C  0.8840049  0.8854619  0.9062899    0.00000       Uiso       1.00
      H309          H  0.8498777  0.8814137  0.8647087    0.00000       Uiso       1.00
      H310          H  0.8812198  0.8500000  0.8643826    0.00000       Uiso       1.00
      H311          H  0.9273427  0.8491468  0.8661252    0.00000       Uiso       1.00
      H312          H  0.9275458  0.8803112  0.8653196    0.00000       Uiso       1.00
       N49          N  0.7678747  0.4464449  0.6270649    0.00000       Uiso       1.00
      C349          C  0.7957874  0.4464503  0.6415866    0.00000       Uiso       1.00
      C350          C  0.7957876  0.4464805  0.5991533    0.00000       Uiso       1.00
       N50          N  0.8091821  0.4464526  0.6270587    0.00000       Uiso       1.00
       N51          N  0.7678750  0.4464743  0.5857655    0.00000       Uiso       1.00
      C351          C  0.7533461  0.4464726  0.5991597    0.00000       Uiso       1.00
       N52          N  0.4456932  0.7685112  0.5856859    0.00000       Uiso       1.00
      C352          C  0.4456996  0.7964435  0.5990832    0.00000       Uiso       1.00
      C353          C  0.4456996  0.7964136  0.6415168    0.00000       Uiso       1.00
       N53          N  0.4456871  0.8098324  0.6269933    0.00000       Uiso       1.00
       N54          N  0.4456932  0.7684820  0.6269855    0.00000       Uiso       1.00
      C354          C  0.4457059  0.7539579  0.5990753    0.00000       Uiso       1.00
      C355          C  0.3925487  0.3695084  0.5579832    0.00000       Uiso       1.00
      C356          C  0.3938507  0.3449452  0.5594568    0.00000       Uiso       1.00
      C357          C  0.4194924  0.3213731  0.5623218    0.00000       Uiso       1.00
      C358          C  0.4200090  0.2963926  0.5623041    0.00000       Uiso       1.00
      C359          C  0.3944736  0.2937707  0.5577834    0.00000       Uiso       1.00
      C360          C  0.3687751  0.3176362  0.5545031    0.00000       Uiso       1.00
      C361          C  0.3683780  0.3439789  0.5573363    0.00000       Uiso       1.00
        O1          O  0.4151486  0.3734536  0.5586002    0.00000       Uiso       1.00
      H313          H  0.4391764  0.3224255  0.5646028    0.00000       Uiso       1.00
      H314          H  0.4405416  0.2792012  0.5655470    0.00000       Uiso       1.00
      H315          H  0.3485633  0.3151602  0.5478792    0.00000       Uiso       1.00
      C362          C  0.1927892  0.3932798  0.5580935    0.00000       Uiso       1.00
      C363          C  0.2175137  0.3945863  0.5595857    0.00000       Uiso       1.00
      C364          C  0.2182963  0.4202437  0.5624493    0.00000       Uiso       1.00
      C365          C  0.2427249  0.4207541  0.5624244    0.00000       Uiso       1.00
      C366          C  0.2663540  0.3951966  0.5578903    0.00000       Uiso       1.00
      C367          C  0.2649224  0.3694864  0.5546255    0.00000       Uiso       1.00
      C368          C  0.2418291  0.3690960  0.5574692    0.00000       Uiso       1.00
        O2          O  0.1668566  0.4158915  0.5586824    0.00000       Uiso       1.00
      H316          H  0.1998420  0.4399421  0.5647206    0.00000       Uiso       1.00
      H317          H  0.2426117  0.4413000  0.5656632    0.00000       Uiso       1.00
      H318          H  0.2809752  0.3492554  0.5479950    0.00000       Uiso       1.00
      C369          C  0.3688307  0.1933281  0.5580035    0.00000       Uiso       1.00
      C370          C  0.3443086  0.2180772  0.5595297    0.00000       Uiso       1.00
      C371          C  0.3207716  0.2188622  0.5624324    0.00000       Uiso       1.00
      C372          C  0.2958203  0.2433215  0.5624554    0.00000       Uiso       1.00
      C373          C  0.2931959  0.2669810  0.5579385    0.00000       Uiso       1.00
      C374          C  0.3170359  0.2655484  0.5546357    0.00000       Uiso       1.00
      C375          C  0.3433470  0.2424158  0.5574188    0.00000       Uiso       1.00
        O3          O  0.3727635  0.1673849  0.5586127    0.00000       Uiso       1.00
      H319          H  0.3218287  0.2003795  0.5646969    0.00000       Uiso       1.00
      H320          H  0.2786495  0.2432097  0.5657139    0.00000       Uiso       1.00
      H321          H  0.3145614  0.2816347  0.5480229    0.00000       Uiso       1.00
      C376          C  0.3915141  0.1921591  0.5542616    0.00000       Uiso       1.00
      C377          C  0.3920527  0.2162226  0.5535811    0.00000       Uiso       1.00
      C378          C  0.4156086  0.2151363  0.5504475    0.00000       Uiso       1.00
      C379          C  0.4162186  0.2397762  0.5509138    0.00000       Uiso       1.00
      C380          C  0.3940051  0.2665527  0.5561920    0.00000       Uiso       1.00
      C381          C  0.3707871  0.2672940  0.5599462    0.00000       Uiso       1.00
      C382          C  0.3683178  0.2421683  0.5565870    0.00000       Uiso       1.00
        O4          O  0.4131360  0.1653620  0.5521222    0.00000       Uiso       1.00
      H322          H  0.4335296  0.1950290  0.5475220    0.00000       Uiso       1.00
      H323          H  0.4343751  0.2375275  0.5473374    0.00000       Uiso       1.00
      H324          H  0.3553301  0.2878030  0.5671930    0.00000       Uiso       1.00
      C383          C  0.1916356  0.3680178  0.5544001    0.00000       Uiso       1.00
      C384          C  0.2156872  0.3427400  0.5537336    0.00000       Uiso       1.00
      C385          C  0.2146236  0.3171336  0.5506611    0.00000       Uiso       1.00
      C386          C  0.2392497  0.2923559  0.5511337    0.00000       Uiso       1.00
      C387          C  0.2659936  0.2930750  0.5563514    0.00000       Uiso       1.00
      C388          C  0.2667122  0.3193110  0.5600489    0.00000       Uiso       1.00
      C389          C  0.2415982  0.3435407  0.5566879    0.00000       Uiso       1.00
        O5          O  0.1648646  0.3710434  0.5522823    0.00000       Uiso       1.00
      H325          H  0.1945397  0.3163832  0.5477654    0.00000       Uiso       1.00
      H326          H  0.2370099  0.2728708  0.5476003    0.00000       Uiso       1.00
      H327          H  0.2871955  0.3215264  0.5672657    0.00000       Uiso       1.00
      C390          C  0.3673033  0.3922335  0.5542995    0.00000       Uiso       1.00
      C391          C  0.3420455  0.3927677  0.5536262    0.00000       Uiso       1.00
      C392          C  0.3164659  0.4163741  0.5505750    0.00000       Uiso       1.00
      C393          C  0.2917092  0.4169905  0.5510638    0.00000       Uiso       1.00
      C394          C  0.2924218  0.3947173  0.5562662    0.00000       Uiso       1.00
      C395          C  0.3186314  0.3714414  0.5599300    0.00000       Uiso       1.00
      C396          C  0.3428417  0.3689839  0.5565634    0.00000       Uiso       1.00
        O6          O  0.3703279  0.4138979  0.5522123    0.00000       Uiso       1.00
      H328          H  0.3157264  0.4343296  0.5476913    0.00000       Uiso       1.00
      H329          H  0.2722482  0.4351994  0.5475586    0.00000       Uiso       1.00
      H330          H  0.3208430  0.3559325  0.5671318    0.00000       Uiso       1.00
        B1          B  0.4007838  0.4017219  0.5549286    0.00000       Uiso       1.00
        B2          B  0.1492903  0.4015182  0.5549881    0.00000       Uiso       1.00
        B3          B  0.4009806  0.1497931  0.5548761    0.00000       Uiso       1.00
      C397          C  0.3685782  0.3933753  0.2023268    0.00000       Uiso       1.00
      C398          C  0.3440413  0.3946881  0.1776183    0.00000       Uiso       1.00
      C399          C  0.3204873  0.4203493  0.1768411    0.00000       Uiso       1.00
      C400          C  0.2955326  0.4208754  0.1524207    0.00000       Uiso       1.00
      C401          C  0.2929189  0.3953292  0.1287923    0.00000       Uiso       1.00
      C402          C  0.3167657  0.3696108  0.1302210    0.00000       Uiso       1.00
      C403          C  0.3430831  0.3692057  0.1533079    0.00000       Uiso       1.00
        O7          O  0.3725122  0.4159819  0.2282437    0.00000       Uiso       1.00
      H331          H  0.3215336  0.4400412  0.1952904    0.00000       Uiso       1.00
      H332          H  0.2783547  0.4414237  0.1525325    0.00000       Uiso       1.00
      H333          H  0.3142944  0.3493885  0.1141617    0.00000       Uiso       1.00
      C404          C  0.3923918  0.1935400  0.0262706    0.00000       Uiso       1.00
      C405          C  0.3936897  0.2182734  0.0508009    0.00000       Uiso       1.00
      C406          C  0.4193220  0.2190486  0.0743521    0.00000       Uiso       1.00
      C407          C  0.4198237  0.2434852  0.0993074    0.00000       Uiso       1.00
      C408          C  0.3942819  0.2671286  0.1019287    0.00000       Uiso       1.00
      C409          C  0.3685966  0.2657039  0.0780768    0.00000       Uiso       1.00
      C410          C  0.3682165  0.2426051  0.0517596    0.00000       Uiso       1.00
        O8          O  0.4149889  0.1675907  0.0223464    0.00000       Uiso       1.00
      H334          H  0.4390076  0.2005824  0.0733121    0.00000       Uiso       1.00
      H335          H  0.4403504  0.2433666  0.1164821    0.00000       Uiso       1.00
      H336          H  0.3483767  0.2817649  0.0805400    0.00000       Uiso       1.00
      C411          C  0.1925901  0.3697157  0.0026005    0.00000       Uiso       1.00
      C412          C  0.2173226  0.3451771  0.0012848    0.00000       Uiso       1.00
      C413          C  0.2181180  0.3216325  0.9756388    0.00000       Uiso       1.00
      C414          C  0.2425601  0.2966636  0.9751067    0.00000       Uiso       1.00
      C415          C  0.2661913  0.2940277  0.0006319    0.00000       Uiso       1.00
      C416          C  0.2647499  0.3178740  0.0263333    0.00000       Uiso       1.00
      C417          C  0.2416346  0.3442045  0.0267459    0.00000       Uiso       1.00
        O9          O  0.1666743  0.3736584  0.9800068    0.00000       Uiso       1.00
      H337          H  0.1996558  0.3226985  0.9559693    0.00000       Uiso       1.00
      H338          H  0.2424565  0.2794894  0.9545737    0.00000       Uiso       1.00
      H339          H  0.2808154  0.3153879  0.0465372    0.00000       Uiso       1.00
      C418          C  0.1914121  0.3924044  0.0278478    0.00000       Uiso       1.00
      C419          C  0.2154497  0.3929337  0.0531045    0.00000       Uiso       1.00
      C420          C  0.2143545  0.4164956  0.0786987    0.00000       Uiso       1.00
      C421          C  0.2389687  0.4170970  0.1034568    0.00000       Uiso       1.00
      C422          C  0.2657284  0.3948697  0.1027247    0.00000       Uiso       1.00
      C423          C  0.2664794  0.3716463  0.0765035    0.00000       Uiso       1.00
      C424          C  0.2413784  0.3691832  0.0522923    0.00000       Uiso       1.00
       O10          O  0.1646343  0.4140421  0.0248312    0.00000       Uiso       1.00
      H340          H  0.1942600  0.4344282  0.0794509    0.00000       Uiso       1.00
      H341          H  0.2367137  0.4352579  0.1229347    0.00000       Uiso       1.00
      H342          H  0.2869773  0.3561815  0.0742976    0.00000       Uiso       1.00
      C425          C  0.3671540  0.1923929  0.0035727    0.00000       Uiso       1.00
      C426          C  0.3418941  0.2164616  0.0030309    0.00000       Uiso       1.00
      C427          C  0.3163138  0.2154036  0.9794580    0.00000       Uiso       1.00
      C428          C  0.2915541  0.2400476  0.9788518    0.00000       Uiso       1.00
      C429          C  0.2922660  0.2668054  0.0010914    0.00000       Uiso       1.00
      C430          C  0.3184769  0.2675170  0.0243234    0.00000       Uiso       1.00
      C431          C  0.3426874  0.2423831  0.0267809    0.00000       Uiso       1.00
       O11          O  0.3701850  0.1656087  0.9819490    0.00000       Uiso       1.00
      H343          H  0.3155689  0.1953112  0.9615248    0.00000       Uiso       1.00
      H344          H  0.2720877  0.2378119  0.9606790    0.00000       Uiso       1.00
      H345          H  0.3206883  0.2880115  0.0398013    0.00000       Uiso       1.00
      C432          C  0.3912853  0.3681104  0.2034723    0.00000       Uiso       1.00
      C433          C  0.3918270  0.3428433  0.1794294    0.00000       Uiso       1.00
      C434          C  0.4154150  0.3172442  0.1804892    0.00000       Uiso       1.00
      C435          C  0.4160395  0.2924792  0.1558681    0.00000       Uiso       1.00
      C436          C  0.3937931  0.2932042  0.1291320    0.00000       Uiso       1.00
      C437          C  0.3705353  0.3194339  0.1284200    0.00000       Uiso       1.00
      C438          C  0.3680698  0.3436508  0.1535313    0.00000       Uiso       1.00
       O12          O  0.4129246  0.3711263  0.2302233    0.00000       Uiso       1.00
      H346          H  0.4333500  0.3164956  0.2005683    0.00000       Uiso       1.00
      H347          H  0.4342334  0.2730024  0.1581062    0.00000       Uiso       1.00
      H348          H  0.3550471  0.3216572  0.1079415    0.00000       Uiso       1.00
        B4          B  0.4007530  0.4015990  0.2457914    0.00000       Uiso       1.00
        B5          B  0.4006351  0.1500197  0.9941190    0.00000       Uiso       1.00
        B6          B  0.1490889  0.4018889  0.9943750    0.00000       Uiso       1.00
       N55          N  0.8093221  0.7685495  0.6269333    0.00000       Uiso       1.00
      C439          C  0.7959233  0.7964786  0.6414664    0.00000       Uiso       1.00
      C440          C  0.7534817  0.7965011  0.5990395    0.00000       Uiso       1.00
       N56          N  0.7680086  0.8098924  0.6269472    0.00000       Uiso       1.00
       N57          N  0.7680147  0.7685714  0.5856401    0.00000       Uiso       1.00
      C441          C  0.7959296  0.7540231  0.5990251    0.00000       Uiso       1.00
      C442          C  0.8370227  0.3698439  0.2027755    0.00000       Uiso       1.00
      C443          C  0.8355477  0.3452987  0.1780587    0.00000       Uiso       1.00
      C444          C  0.8326775  0.3217239  0.1772691    0.00000       Uiso       1.00
      C445          C  0.8326941  0.2967606  0.1528402    0.00000       Uiso       1.00
      C446          C  0.8372194  0.2941580  0.1292150    0.00000       Uiso       1.00
      C447          C  0.8405051  0.3180255  0.1306561    0.00000       Uiso       1.00
      C448          C  0.8376724  0.3443534  0.1537524    0.00000       Uiso       1.00
       O13          O  0.8364024  0.3737667  0.2286896    0.00000       Uiso       1.00
      H349          H  0.8303931  0.3227607  0.1957154    0.00000       Uiso       1.00
      H350          H  0.8294469  0.2795671  0.1529429    0.00000       Uiso       1.00
      H351          H  0.8471332  0.3155612  0.1145988    0.00000       Uiso       1.00
      C449          C  0.8369433  0.3937777  0.0267648    0.00000       Uiso       1.00
      C450          C  0.8354473  0.3950629  0.0512911    0.00000       Uiso       1.00
      C451          C  0.8325839  0.4207048  0.0748513    0.00000       Uiso       1.00
      C452          C  0.8326052  0.4211930  0.0998021    0.00000       Uiso       1.00
      C453          C  0.8371356  0.3956269  0.1024097    0.00000       Uiso       1.00
      C454          C  0.8404003  0.3699322  0.0785489    0.00000       Uiso       1.00
      C455          C  0.8375595  0.3695663  0.0522363    0.00000       Uiso       1.00
       O14          O  0.8363592  0.4163972  0.0228532    0.00000       Uiso       1.00
      H352          H  0.8303158  0.4404086  0.0738217    0.00000       Uiso       1.00
      H353          H  0.8293666  0.4417284  0.1169842    0.00000       Uiso       1.00
      H354          H  0.8470288  0.3496930  0.0810013    0.00000       Uiso       1.00
      C456          C  0.8369992  0.1938101  0.0029942    0.00000       Uiso       1.00
      C457          C  0.8354775  0.2185655  0.0016917    0.00000       Uiso       1.00
      C458          C  0.8325789  0.2193731  0.9760508    0.00000       Uiso       1.00
      C459          C  0.8325606  0.2438374  0.9755315    0.00000       Uiso       1.00
      C460          C  0.8370785  0.2674784  0.0010647    0.00000       Uiso       1.00
      C461          C  0.8403783  0.2660213  0.0267606    0.00000       Uiso       1.00
      C462          C  0.8375899  0.2428850  0.0271609    0.00000       Uiso       1.00
       O15          O  0.8363895  0.1678811  0.9803911    0.00000       Uiso       1.00
      H355          H  0.8303131  0.2009054  0.9563751    0.00000       Uiso       1.00
      H356          H  0.8293040  0.2437452  0.9550023    0.00000       Uiso       1.00
      H357          H  0.8469933  0.2820902  0.0469694    0.00000       Uiso       1.00
      C463          C  0.8407384  0.1926169  0.0282363    0.00000       Uiso       1.00
      C464          C  0.8414198  0.2166620  0.0535009    0.00000       Uiso       1.00
      C465          C  0.8445505  0.2155515  0.0790899    0.00000       Uiso       1.00
      C466          C  0.8440850  0.2401739  0.1038562    0.00000       Uiso       1.00
      C467          C  0.8388101  0.2669578  0.1031381    0.00000       Uiso       1.00
      C468          C  0.8350587  0.2677241  0.0769221    0.00000       Uiso       1.00
      C469          C  0.8384179  0.2426143  0.0527024    0.00000       Uiso       1.00
       O16          O  0.8428739  0.1658169  0.0252063    0.00000       Uiso       1.00
      H358          H  0.8474731  0.1954387  0.0798314    0.00000       Uiso       1.00
      H359          H  0.8476593  0.2379060  0.1233294    0.00000       Uiso       1.00
      H360          H  0.8278138  0.2882413  0.0747271    0.00000       Uiso       1.00
      C470          C  0.8406367  0.3685301  0.0040581    0.00000       Uiso       1.00
      C471          C  0.8412988  0.3432479  0.0035031    0.00000       Uiso       1.00
      C472          C  0.8443722  0.3176554  0.9799213    0.00000       Uiso       1.00
      C473          C  0.8438948  0.2928737  0.9793022    0.00000       Uiso       1.00
      C474          C  0.8386709  0.2935763  0.0015378    0.00000       Uiso       1.00
      C475          C  0.8349736  0.3197975  0.0247791    0.00000       Uiso       1.00
      C476          C  0.8383400  0.3440284  0.0272489    0.00000       Uiso       1.00
       O17          O  0.8427602  0.3715734  0.9824401    0.00000       Uiso       1.00
      H361          H  0.8472713  0.3169199  0.9619912    0.00000       Uiso       1.00
      H362          H  0.8474285  0.2734002  0.9611228    0.00000       Uiso       1.00
      H363          H  0.8277525  0.3220019  0.0402549    0.00000       Uiso       1.00
      C477          C  0.8407118  0.3925708  0.2039328    0.00000       Uiso       1.00
      C478          C  0.8413891  0.3931265  0.1798948    0.00000       Uiso       1.00
      C479          C  0.8444456  0.4167353  0.1809669    0.00000       Uiso       1.00
      C480          C  0.8439605  0.4173741  0.1563506    0.00000       Uiso       1.00
      C481          C  0.8387561  0.3951225  0.1296077    0.00000       Uiso       1.00
      C482          C  0.8350868  0.3718442  0.1288835    0.00000       Uiso       1.00
      C483          C  0.8384503  0.3693625  0.1539889    0.00000       Uiso       1.00
       O18          O  0.8427998  0.4142145  0.2306902    0.00000       Uiso       1.00
      H364          H  0.8473306  0.4346751  0.2010517    0.00000       Uiso       1.00
      H365          H  0.8474699  0.4355832  0.1585980    0.00000       Uiso       1.00
      H366          H  0.8278827  0.3563533  0.1084004    0.00000       Uiso       1.00
        B7          B  0.8400779  0.4020232  0.2462489    0.00000       Uiso       1.00
        B8          B  0.8400574  0.4020439  0.9946237    0.00000       Uiso       1.00
        B9          B  0.8401219  0.1502719  0.9947475    0.00000       Uiso       1.00
       N58          N  0.7680123  0.7683125  0.9491983    0.00000       Uiso       1.00
      C484          C  0.7534795  0.7962517  0.9491951    0.00000       Uiso       1.00
      C485          C  0.7959208  0.7962599  0.9491888    0.00000       Uiso       1.00
       N59          N  0.7680062  0.8096631  0.9492061    0.00000       Uiso       1.00
       N60          N  0.8093194  0.7683204  0.9491920    0.00000       Uiso       1.00
      C486          C  0.7959271  0.7537739  0.9491808    0.00000       Uiso       1.00
      C487          C  0.3688461  0.8374108  0.0022779    0.00000       Uiso       1.00
      C488          C  0.3443097  0.8359269  0.0009832    0.00000       Uiso       1.00
      C489          C  0.3207610  0.8330625  0.9753524    0.00000       Uiso       1.00
      C490          C  0.2958065  0.8330711  0.9748434    0.00000       Uiso       1.00
      C491          C  0.2931871  0.8375836  0.0003760    0.00000       Uiso       1.00
      C492          C  0.3170296  0.8408625  0.0260631    0.00000       Uiso       1.00
      C493          C  0.3433473  0.8380353  0.0264518    0.00000       Uiso       1.00
       O19          O  0.3727847  0.8368056  0.9796804    0.00000       Uiso       1.00
      H367          H  0.3218106  0.8307900  0.9556712    0.00000       Uiso       1.00
      H368          H  0.2786321  0.8298293  0.9543191    0.00000       Uiso       1.00
      H369          H  0.3145542  0.8474822  0.0462731    0.00000       Uiso       1.00
      C494          C  0.3926298  0.8371971  0.2019928    0.00000       Uiso       1.00
      C495          C  0.3939317  0.8357174  0.1772722    0.00000       Uiso       1.00
      C496          C  0.4195645  0.8328604  0.1764816    0.00000       Uiso       1.00
      C497          C  0.4200699  0.8328992  0.1520574    0.00000       Uiso       1.00
      C498          C  0.3945309  0.8374425  0.1284412    0.00000       Uiso       1.00
      C499          C  0.3688450  0.8407009  0.1298808    0.00000       Uiso       1.00
      C500          C  0.3684617  0.8378406  0.1529693    0.00000       Uiso       1.00
       O20          O  0.4152232  0.8366014  0.2279136    0.00000       Uiso       1.00
      H370          H  0.4392476  0.8305832  0.1949261    0.00000       Uiso       1.00
      H371          H  0.4405971  0.8296639  0.1521639    0.00000       Uiso       1.00
      H372          H  0.3486264  0.8473411  0.1138384    0.00000       Uiso       1.00
      C501          C  0.1928544  0.8373112  0.0260440    0.00000       Uiso       1.00
      C502          C  0.2175835  0.8357787  0.0505538    0.00000       Uiso       1.00
      C503          C  0.2183746  0.8328594  0.0740856    0.00000       Uiso       1.00
      C504          C  0.2428129  0.8328316  0.0990249    0.00000       Uiso       1.00
      C505          C  0.2664444  0.8373614  0.1016426    0.00000       Uiso       1.00
      C506          C  0.2650059  0.8406811  0.0778081    0.00000       Uiso       1.00
      C507          C  0.2418950  0.8379007  0.0515084    0.00000       Uiso       1.00
       O21          O  0.1669382  0.8366938  0.0221196    0.00000       Uiso       1.00
      H373          H  0.1999130  0.8305858  0.0730338    0.00000       Uiso       1.00
      H374          H  0.2427073  0.8295593  0.1161920    0.00000       Uiso       1.00
      H375          H  0.2810701  0.8473068  0.0802786    0.00000       Uiso       1.00
      C508          C  0.1916792  0.8410701  0.0033659    0.00000       Uiso       1.00
      C509          C  0.2157169  0.8417606  0.0028203    0.00000       Uiso       1.00
      C510          C  0.2146259  0.8449095  0.9792694    0.00000       Uiso       1.00
      C511          C  0.2392403  0.8444521  0.9786520    0.00000       Uiso       1.00
      C512          C  0.2659962  0.8391665  0.0008527    0.00000       Uiso       1.00
      C513          C  0.2667444  0.8353949  0.0240655    0.00000       Uiso       1.00
      C514          C  0.2416425  0.8387474  0.0265425    0.00000       Uiso       1.00
       O22          O  0.1649055  0.8432127  0.9817561    0.00000       Uiso       1.00
      H376          H  0.1945337  0.8478411  0.9613583    0.00000       Uiso       1.00
      H377          H  0.2369874  0.8480424  0.9605003    0.00000       Uiso       1.00
      H378          H  0.2872410  0.8281382  0.0395122    0.00000       Uiso       1.00
      C515          C  0.3673912  0.8408850  0.2031543    0.00000       Uiso       1.00
      C516          C  0.3421349  0.8415563  0.1791150    0.00000       Uiso       1.00
      C517          C  0.3165528  0.8446224  0.1801866    0.00000       Uiso       1.00
      C518          C  0.2917969  0.8441538  0.1555724    0.00000       Uiso       1.00
      C519          C  0.2925147  0.8389449  0.1288323    0.00000       Uiso       1.00
      C520          C  0.3187263  0.8352531  0.1281054    0.00000       Uiso       1.00
      C521          C  0.3429325  0.8386132  0.1532080    0.00000       Uiso       1.00
       O23          O  0.3704168  0.8429915  0.2299199    0.00000       Uiso       1.00
      H379          H  0.3158044  0.8475102  0.2002674    0.00000       Uiso       1.00
      H380          H  0.2723295  0.8476831  0.1578182    0.00000       Uiso       1.00
      H381          H  0.3209417  0.8280397  0.1076238    0.00000       Uiso       1.00
      C522          C  0.3915490  0.8410932  0.0275124    0.00000       Uiso       1.00
      C523          C  0.3920868  0.8417535  0.0527655    0.00000       Uiso       1.00
      C524          C  0.4156705  0.8448030  0.0783338    0.00000       Uiso       1.00
      C525          C  0.4162913  0.8442999  0.1030856    0.00000       Uiso       1.00
      C526          C  0.3940458  0.8390831  0.1023787    0.00000       Uiso       1.00
      C527          C  0.3707925  0.8354208  0.0761804    0.00000       Uiso       1.00
      C528          C  0.3683301  0.8388042  0.0519760    0.00000       Uiso       1.00
       O24          O  0.4131883  0.8431929  0.0244823    0.00000       Uiso       1.00
      H382          H  0.4336049  0.8476965  0.0790683    0.00000       Uiso       1.00
      H383          H  0.4344818  0.8478053  0.1225381    0.00000       Uiso       1.00
      H384          H  0.3553056  0.8282056  0.0739724    0.00000       Uiso       1.00
       B10          B  0.4010229  0.8404843  0.9940349    0.00000       Uiso       1.00
       B11          B  0.4008650  0.8402850  0.2454816    0.00000       Uiso       1.00
       B12          B  0.1493575  0.8404428  0.9939134    0.00000       Uiso       1.00
