data_12
_audit_creation_date              0000-00-00
_audit_creation_method            'LanYouShi'
_symmetry_space_group_name_H-M    'P1'
_cell_length_a                    84.9606018
_cell_length_b                    73.5671005
_cell_length_c                    73.5671005
_cell_angle_alpha                 109.4953995
_cell_angle_beta                  54.7295990
_cell_angle_gamma                 125.2704010
loop_
_atom_site_label
_atom_site_type_symbol
_atom_site_fract_x
_atom_site_fract_y
_atom_site_fract_z
_atom_site_U_iso_or_equiv
_atom_site_adp_type
_atom_site_occupancy
        C1          C  0.4999525  0.5000213  0.5001122    0.00000       Uiso       1.00
        C2          C  0.6357063  0.5309035  0.3239408    0.00000       Uiso       1.00
        C3          C  0.6126328  0.5203938  0.3319029    0.00000       Uiso       1.00
        C4          C  0.6050342  0.5122368  0.3164653    0.00000       Uiso       1.00
        C5          C  0.6203454  0.5148115  0.2933405    0.00000       Uiso       1.00
        C6          C  0.6434611  0.5255642  0.2853786    0.00000       Uiso       1.00
        C7          C  0.6510544  0.5335891  0.3008108    0.00000       Uiso       1.00
        H1          H  0.6688181  0.5418361  0.2950480    0.00000       Uiso       1.00
        H2          H  0.5872389  0.5038683  0.3223285    0.00000       Uiso       1.00
        H3          H  0.6140850  0.5084162  0.2817334    0.00000       Uiso       1.00
        C8          C  0.5758542  0.5555504  0.5924199    0.00000       Uiso       1.00
        C9          C  0.5712523  0.5404388  0.6049837    0.00000       Uiso       1.00
       C10          C  0.5907335  0.5785865  0.5929782    0.00000       Uiso       1.00
       C11          C  0.6011217  0.5864001  0.6057148    0.00000       Uiso       1.00
       C12          C  0.5967206  0.5712463  0.6180778    0.00000       Uiso       1.00
       C13          C  0.5817199  0.5482207  0.6176463    0.00000       Uiso       1.00
        H4          H  0.5779662  0.5362200  0.6271628    0.00000       Uiso       1.00
        H5          H  0.5942969  0.5905185  0.5835516    0.00000       Uiso       1.00
        H6          H  0.6125938  0.6042676  0.6058497    0.00000       Uiso       1.00
       C14          C  0.3872722  0.3318121  0.5204848    0.00000       Uiso       1.00
       C15          C  0.3641986  0.3238500  0.5309945    0.00000       Uiso       1.00
       C16          C  0.3948708  0.3163745  0.5123278    0.00000       Uiso       1.00
       C17          C  0.3795596  0.2932497  0.5149025    0.00000       Uiso       1.00
       C18          C  0.3564438  0.2852877  0.5256553    0.00000       Uiso       1.00
       C19          C  0.3488505  0.3007200  0.5336801    0.00000       Uiso       1.00
        H7          H  0.3310869  0.2949572  0.5419272    0.00000       Uiso       1.00
        H8          H  0.4126661  0.3222377  0.5039593    0.00000       Uiso       1.00
        H9          H  0.3858199  0.2816426  0.5085072    0.00000       Uiso       1.00
       C20          C  0.4240509  0.5923290  0.5556411    0.00000       Uiso       1.00
       C21          C  0.4286527  0.6048930  0.5405295    0.00000       Uiso       1.00
       C22          C  0.4091716  0.5928874  0.5786773    0.00000       Uiso       1.00
       C23          C  0.3987834  0.6056240  0.5864908    0.00000       Uiso       1.00
       C24          C  0.4031845  0.6179870  0.5713370    0.00000       Uiso       1.00
       C25          C  0.4181852  0.6175554  0.5483114    0.00000       Uiso       1.00
       H10          H  0.4219389  0.6270720  0.5363107    0.00000       Uiso       1.00
       H11          H  0.4056082  0.5834607  0.5906093    0.00000       Uiso       1.00
       H12          H  0.3873112  0.6057589  0.6043584    0.00000       Uiso       1.00
       Br1         Br  0.5508250  0.5093521  0.6052929    0.00000       Uiso       1.00
       Br2         Br  0.6466749  0.5415628  0.3440591    0.00000       Uiso       1.00
       Br3         Br  0.4490800  0.6052020  0.5094429    0.00000       Uiso       1.00
       Br4         Br  0.3532301  0.3439682  0.5416538    0.00000       Uiso       1.00
       C26          C  0.5836521  0.5102454  0.3940414    0.00000       Uiso       1.00
       C27          C  0.5645127  0.5114961  0.4030003    0.00000       Uiso       1.00
       C28          C  0.5615105  0.5158681  0.3883126    0.00000       Uiso       1.00
       C29          C  0.5771309  0.5189738  0.3654660    0.00000       Uiso       1.00
       C30          C  0.5961832  0.5175008  0.3564490    0.00000       Uiso       1.00
       C31          C  0.5991869  0.5130799  0.3711311    0.00000       Uiso       1.00
       H13          H  0.6134276  0.5115460  0.3649130    0.00000       Uiso       1.00
       H14          H  0.5468768  0.5166438  0.3944962    0.00000       Uiso       1.00
       C32          C  0.5439792  0.5325729  0.5531974    0.00000       Uiso       1.00
       C33          C  0.5325480  0.5223926  0.5735876    0.00000       Uiso       1.00
       C34          C  0.5660411  0.5502626  0.5458232    0.00000       Uiso       1.00
       C35          C  0.5763730  0.5574889  0.5583380    0.00000       Uiso       1.00
       C36          C  0.5648646  0.5474537  0.5788633    0.00000       Uiso       1.00
       C37          C  0.5427579  0.5297681  0.5862880    0.00000       Uiso       1.00
       H15          H  0.5332013  0.5217455  0.6020627    0.00000       Uiso       1.00
       H16          H  0.5752669  0.5587126  0.5304137    0.00000       Uiso       1.00
       C38          C  0.4353921  0.4029095  0.5115873    0.00000       Uiso       1.00
       C39          C  0.4162528  0.3939506  0.5103366    0.00000       Uiso       1.00
       C40          C  0.4383943  0.3882218  0.5159593    0.00000       Uiso       1.00
       C41          C  0.4227740  0.3653752  0.5190649    0.00000       Uiso       1.00
       C42          C  0.4037218  0.3563582  0.5175919    0.00000       Uiso       1.00
       C43          C  0.4007180  0.3710402  0.5131708    0.00000       Uiso       1.00
       H17          H  0.4131882  0.4047821  0.5074123    0.00000       Uiso       1.00
       H18          H  0.4255525  0.3548003  0.5228406    0.00000       Uiso       1.00
       C44          C  0.4559260  0.5531067  0.5326638    0.00000       Uiso       1.00
       C45          C  0.4673570  0.5734966  0.5224832    0.00000       Uiso       1.00
       C46          C  0.4338641  0.5457326  0.5503538    0.00000       Uiso       1.00
       C47          C  0.4235322  0.5582473  0.5575799    0.00000       Uiso       1.00
       C48          C  0.4350404  0.5787724  0.5475445    0.00000       Uiso       1.00
       C49          C  0.4571471  0.5861970  0.5298586    0.00000       Uiso       1.00
       H19          H  0.4667036  0.6019716  0.5218359    0.00000       Uiso       1.00
       H20          H  0.4246384  0.5303233  0.5588040    0.00000       Uiso       1.00
       Br5         Br  0.5028179  0.4978313  0.5841728    0.00000       Uiso       1.00
       Br6         Br  0.6066174  0.5810665  0.5467653    0.00000       Uiso       1.00
       Br7         Br  0.5890686  0.5050768  0.4131862    0.00000       Uiso       1.00
       Br8         Br  0.5722251  0.5256406  0.3467942    0.00000       Uiso       1.00
       Br9         Br  0.3932879  0.5466748  0.5811577    0.00000       Uiso       1.00
      Br10         Br  0.4970869  0.5840816  0.4979216    0.00000       Uiso       1.00
      Br11         Br  0.3755707  0.3600599  0.5104622    0.00000       Uiso       1.00
      Br12         Br  0.4642633  0.3991531  0.5173306    0.00000       Uiso       1.00
       C50          C  0.5278427  0.4909351  0.4630969    0.00000       Uiso       1.00
       C51          C  0.5167579  0.5033953  0.4744833    0.00000       Uiso       1.00
       C52          C  0.5208923  0.5176181  0.4613863    0.00000       Uiso       1.00
       C53          C  0.5363847  0.5203544  0.4385190    0.00000       Uiso       1.00
       C54          C  0.5478687  0.5084397  0.4275261    0.00000       Uiso       1.00
       C55          C  0.5431393  0.4934650  0.4401564    0.00000       Uiso       1.00
       H21          H  0.5247170  0.4792747  0.4722161    0.00000       Uiso       1.00
       H22          H  0.5510366  0.4834104  0.4322679    0.00000       Uiso       1.00
       H23          H  0.5122315  0.5267552  0.4684277    0.00000       Uiso       1.00
       C56          C  0.5121500  0.5088447  0.5135435    0.00000       Uiso       1.00
       C57          C  0.4999917  0.5091466  0.5370884    0.00000       Uiso       1.00
       C58          C  0.5353354  0.5178069  0.5034551    0.00000       Uiso       1.00
       C59          C  0.5454466  0.5251818  0.5162112    0.00000       Uiso       1.00
       C60          C  0.5330408  0.5246910  0.5396099    0.00000       Uiso       1.00
       C61          C  0.5101653  0.5167904  0.5498552    0.00000       Uiso       1.00
       H24          H  0.4823377  0.5031531  0.5456232    0.00000       Uiso       1.00
       H25          H  0.5001020  0.5167818  0.5678071    0.00000       Uiso       1.00
       H26          H  0.5460917  0.5194259  0.4856572    0.00000       Uiso       1.00
       C62          C  0.4831470  0.4743925  0.5034863    0.00000       Uiso       1.00
       C63          C  0.4720621  0.4630060  0.4910264    0.00000       Uiso       1.00
       C64          C  0.4790125  0.4612956  0.5177093    0.00000       Uiso       1.00
       C65          C  0.4635201  0.4384283  0.5204456    0.00000       Uiso       1.00
       C66          C  0.4520361  0.4274353  0.5085309    0.00000       Uiso       1.00
       C67          C  0.4567654  0.4400656  0.4935563    0.00000       Uiso       1.00
       H27          H  0.4751876  0.4721253  0.4793659    0.00000       Uiso       1.00
       H28          H  0.4488681  0.4321771  0.4835017    0.00000       Uiso       1.00
       H29          H  0.4876733  0.4683371  0.5268463    0.00000       Uiso       1.00
       C68          C  0.4877551  0.5134527  0.5089356    0.00000       Uiso       1.00
       C69          C  0.4999136  0.5369976  0.5092368    0.00000       Uiso       1.00
       C70          C  0.4645696  0.5033643  0.5178986    0.00000       Uiso       1.00
       C71          C  0.4544583  0.5161204  0.5252736    0.00000       Uiso       1.00
       C72          C  0.4668643  0.5395191  0.5247819    0.00000       Uiso       1.00
       C73          C  0.4897400  0.5497645  0.5168805    0.00000       Uiso       1.00
       H30          H  0.5175678  0.5455324  0.5032428    0.00000       Uiso       1.00
       H31          H  0.4998034  0.5677163  0.5168713    0.00000       Uiso       1.00
       H32          H  0.4538131  0.4855664  0.5195183    0.00000       Uiso       1.00
      Br13         Br  0.5765767  0.5356083  0.5010163    0.00000       Uiso       1.00
      Br14         Br  0.5418931  0.5410576  0.4225837    0.00000       Uiso       1.00
      Br15         Br  0.4233280  0.5009254  0.5357012    0.00000       Uiso       1.00
      Br16         Br  0.4580117  0.4224930  0.5411490    0.00000       Uiso       1.00
       C74          C  0.6250648  0.3749658  0.8749440    0.00000       Uiso       1.00
       C75          C  0.7299682  0.3037128  0.7390794    0.00000       Uiso       1.00
       C76          C  0.7174065  0.2991054  0.7621545    0.00000       Uiso       1.00
       C77          C  0.7179714  0.2842264  0.7697395    0.00000       Uiso       1.00
       C78          C  0.7307127  0.2738438  0.7544132    0.00000       Uiso       1.00
       C79          C  0.7430738  0.2782505  0.7312959    0.00000       Uiso       1.00
       C80          C  0.7426354  0.2932510  0.7237163    0.00000       Uiso       1.00
       H33          H  0.7521503  0.2970089  0.7059518    0.00000       Uiso       1.00
       H34          H  0.7085465  0.2806588  0.7875357    0.00000       Uiso       1.00
       H35          H  0.7308527  0.2623717  0.7606633    0.00000       Uiso       1.00
       C81          C  0.6453869  0.4876551  0.7991342    0.00000       Uiso       1.00
       C82          C  0.6558862  0.5107334  0.8037520    0.00000       Uiso       1.00
       C83          C  0.6372334  0.4800529  0.7842518    0.00000       Uiso       1.00
       C84          C  0.6398012  0.4953653  0.7738761    0.00000       Uiso       1.00
       C85          C  0.6505436  0.5184859  0.7782931    0.00000       Uiso       1.00
       C86          C  0.6585650  0.5260828  0.7932971    0.00000       Uiso       1.00
       H36          H  0.6668041  0.5438501  0.7970629    0.00000       Uiso       1.00
       H37          H  0.6288728  0.4622540  0.7806762    0.00000       Uiso       1.00
       H38          H  0.6334087  0.4891020  0.7624012    0.00000       Uiso       1.00
       C87          C  0.6805599  0.4508923  0.9876674    0.00000       Uiso       1.00
       C88          C  0.6654495  0.4462828  0.0107444    0.00000       Uiso       1.00
       C89          C  0.7035894  0.4657818  0.9800719    0.00000       Uiso       1.00
       C90          C  0.7113984  0.4761735  0.9953889    0.00000       Uiso       1.00
       C91          C  0.6962456  0.4717649  0.0185083    0.00000       Uiso       1.00
       C92          C  0.6732267  0.4567538  0.0260984    0.00000       Uiso       1.00
       H39          H  0.6612276  0.4529948  0.0438641    0.00000       Uiso       1.00
       H40          H  0.7155198  0.4693505  0.9622745    0.00000       Uiso       1.00
       H41          H  0.7292607  0.4876537  0.9891308    0.00000       Uiso       1.00
       C93          C  0.4569061  0.2622103  0.9508200    0.00000       Uiso       1.00
       C94          C  0.4489543  0.2391331  0.9462010    0.00000       Uiso       1.00
       C95          C  0.4414650  0.2698019  0.9657129    0.00000       Uiso       1.00
       C96          C  0.4183471  0.2544804  0.9760978    0.00000       Uiso       1.00
       C97          C  0.4103955  0.2313611  0.9716796    0.00000       Uiso       1.00
       C98          C  0.4258312  0.2237746  0.9566651    0.00000       Uiso       1.00
       H42          H  0.4200763  0.2060084  0.9528981    0.00000       Uiso       1.00
       H43          H  0.4473203  0.2875998  0.9692897    0.00000       Uiso       1.00
       H44          H  0.4067372  0.2607356  0.9875808    0.00000       Uiso       1.00
      Br17         Br  0.6665407  0.5217067  0.8241844    0.00000       Uiso       1.00
      Br18         Br  0.7302683  0.3241403  0.7281290    0.00000       Uiso       1.00
      Br19         Br  0.4690774  0.2281736  0.9257548    0.00000       Uiso       1.00
      Br20         Br  0.6343719  0.4258416  0.0217085    0.00000       Uiso       1.00
       C99          C  0.6985548  0.3424032  0.7911824    0.00000       Uiso       1.00
      C100          C  0.6781698  0.3309630  0.8103207    0.00000       Uiso       1.00
      C101          C  0.6708055  0.3088977  0.8133063    0.00000       Uiso       1.00
      C102          C  0.6833249  0.2985715  0.7976711    0.00000       Uiso       1.00
      C103          C  0.7038449  0.3100889  0.7786199    0.00000       Uiso       1.00
      C104          C  0.7112597  0.3321989  0.7756327    0.00000       Uiso       1.00
       H45          H  0.7270300  0.3417625  0.7613935    0.00000       Uiso       1.00
       H46          H  0.6554003  0.2996651  0.8279387    0.00000       Uiso       1.00
      C105          C  0.6365109  0.4395312  0.8309701    0.00000       Uiso       1.00
      C106          C  0.6352515  0.4586699  0.8424190    0.00000       Uiso       1.00
      C107          C  0.6408845  0.4365310  0.8089035    0.00000       Uiso       1.00
      C108          C  0.6439830  0.4521528  0.7985843    0.00000       Uiso       1.00
      C109          C  0.6425014  0.4712043  0.8101103    0.00000       Uiso       1.00
      C110          C  0.6380789  0.4742060  0.8322217    0.00000       Uiso       1.00
       H47          H  0.6365386  0.4884460  0.8417917    0.00000       Uiso       1.00
       H48          H  0.6416668  0.4218978  0.7996643    0.00000       Uiso       1.00
      C111          C  0.6575966  0.4190069  0.9395292    0.00000       Uiso       1.00
      C112          C  0.6474214  0.4075713  0.9586629    0.00000       Uiso       1.00
      C113          C  0.6752766  0.4410768  0.9365389    0.00000       Uiso       1.00
      C114          C  0.6824983  0.4514118  0.9521653    0.00000       Uiso       1.00
      C115          C  0.6724682  0.4398991  0.9712117    0.00000       Uiso       1.00
      C116          C  0.6547924  0.4177845  0.9742035    0.00000       Uiso       1.00
       H49          H  0.6335328  0.3907446  0.9617186    0.00000       Uiso       1.00
       H50          H  0.6958439  0.4685468  0.9493962    0.00000       Uiso       1.00
      C117          C  0.5279819  0.3103621  0.9189562    0.00000       Uiso       1.00
      C118          C  0.5190316  0.2912186  0.9075121    0.00000       Uiso       1.00
      C119          C  0.5132928  0.3133578  0.9410273    0.00000       Uiso       1.00
      C120          C  0.4904532  0.2977272  0.9513554    0.00000       Uiso       1.00
      C121          C  0.4814448  0.2786708  0.9398342    0.00000       Uiso       1.00
      C122          C  0.4961282  0.2756736  0.9177183    0.00000       Uiso       1.00
       H51          H  0.4899165  0.2614299  0.9081517    0.00000       Uiso       1.00
       H52          H  0.5194698  0.3279944  0.9502634    0.00000       Uiso       1.00
      Br21         Br  0.6300803  0.4640841  0.8721562    0.00000       Uiso       1.00
      Br22         Br  0.6506521  0.4472500  0.7683324    0.00000       Uiso       1.00
      Br23         Br  0.7091267  0.3721379  0.7857877    0.00000       Uiso       1.00
      Br24         Br  0.6717658  0.2683218  0.8025550    0.00000       Uiso       1.00
      Br25         Br  0.4717792  0.3026248  0.9816125    0.00000       Uiso       1.00
      Br26         Br  0.5381788  0.2858105  0.8777687    0.00000       Uiso       1.00
      Br27         Br  0.6406330  0.4009025  0.9993421    0.00000       Uiso       1.00
      Br28         Br  0.6902071  0.4573924  0.9106779    0.00000       Uiso       1.00
      C123          C  0.6620411  0.3749433  0.8470373    0.00000       Uiso       1.00
      C124          C  0.6385017  0.3627744  0.8581217    0.00000       Uiso       1.00
      C125          C  0.6284237  0.3395844  0.8539710    0.00000       Uiso       1.00
      C126          C  0.6411843  0.3294789  0.8384638    0.00000       Uiso       1.00
      C127          C  0.6645775  0.3418952  0.8269805    0.00000       Uiso       1.00
      C128          C  0.6748125  0.3647754  0.8317258    0.00000       Uiso       1.00
       H53          H  0.6705680  0.3926012  0.8501749    0.00000       Uiso       1.00
       H54          H  0.6927599  0.3748466  0.8238295    0.00000       Uiso       1.00
       H55          H  0.6106307  0.3288200  0.8626301    0.00000       Uiso       1.00
      C129          C  0.6284314  0.3917727  0.8627601    0.00000       Uiso       1.00
      C130          C  0.6159663  0.4028518  0.8749340    0.00000       Uiso       1.00
      C131          C  0.6426527  0.3959138  0.8395721    0.00000       Uiso       1.00
      C132          C  0.6453820  0.4114074  0.8294736    0.00000       Uiso       1.00
      C133          C  0.6334620  0.4228859  0.8418949    0.00000       Uiso       1.00
      C134          C  0.6184892  0.4181497  0.8647729    0.00000       Uiso       1.00
       H56          H  0.6043070  0.3997209  0.8925904    0.00000       Uiso       1.00
       H57          H  0.6084311  0.4260423  0.8748477    0.00000       Uiso       1.00
       H58          H  0.6517938  0.3872573  0.8288040    0.00000       Uiso       1.00
      C135          C  0.6338827  0.3871672  0.8917565    0.00000       Uiso       1.00
      C136          C  0.6341897  0.3750089  0.9028304    0.00000       Uiso       1.00
      C137          C  0.6428348  0.4103566  0.8959078    0.00000       Uiso       1.00
      C138          C  0.6502051  0.4204711  0.9114059    0.00000       Uiso       1.00
      C139          C  0.6497197  0.4080651  0.9228790    0.00000       Uiso       1.00
      C140          C  0.6418288  0.3851860  0.9181328    0.00000       Uiso       1.00
       H59          H  0.6282039  0.3573521  0.8996917    0.00000       Uiso       1.00
       H60          H  0.6418246  0.3751227  0.9260211    0.00000       Uiso       1.00
       H61          H  0.6444492  0.4211137  0.8872558    0.00000       Uiso       1.00
      C141          C  0.5994436  0.3581489  0.8871378    0.00000       Uiso       1.00
      C142          C  0.5880621  0.3470587  0.8749745    0.00000       Uiso       1.00
      C143          C  0.5863483  0.3540090  0.9103255    0.00000       Uiso       1.00
      C144          C  0.5634880  0.3385065  0.9204331    0.00000       Uiso       1.00
      C145          C  0.5525002  0.3270171  0.9080218    0.00000       Uiso       1.00
      C146          C  0.5651285  0.3317516  0.8851447    0.00000       Uiso       1.00
       H62          H  0.5971800  0.3501880  0.8573191    0.00000       Uiso       1.00
       H63          H  0.5572436  0.3238505  0.8750777    0.00000       Uiso       1.00
       H64          H  0.5933859  0.3626733  0.9210865    0.00000       Uiso       1.00
      Br29         Br  0.6660831  0.4169254  0.7983391    0.00000       Uiso       1.00
      Br30         Br  0.6260034  0.2983419  0.8329344    0.00000       Uiso       1.00
      Br31         Br  0.5475551  0.3329916  0.9515657    0.00000       Uiso       1.00
      Br32         Br  0.6606181  0.4516060  0.9169375    0.00000       Uiso       1.00
      C147          C  0.8749532  0.0000779  0.7502798    0.00000       Uiso       1.00
      C148          C  0.0510912  0.0404483  0.6453336    0.00000       Uiso       1.00
      C149          C  0.0431301  0.0555654  0.6579126    0.00000       Uiso       1.00
      C150          C  0.0585638  0.0786014  0.6573612    0.00000       Uiso       1.00
      C151          C  0.0816841  0.0864092  0.6446167    0.00000       Uiso       1.00
      C152          C  0.0896453  0.0712499  0.6322385    0.00000       Uiso       1.00
      C153          C  0.0742168  0.0482245  0.6326630    0.00000       Uiso       1.00
       H65          H  0.0799791  0.0362194  0.6231349    0.00000       Uiso       1.00
       H66          H  0.0527011  0.0905376  0.6667996    0.00000       Uiso       1.00
       H67          H  0.0932883  0.1042767  0.6444874    0.00000       Uiso       1.00
      C154          C  0.7826605  0.8318587  0.7298484    0.00000       Uiso       1.00
      C155          C  0.7700852  0.8238920  0.7193475    0.00000       Uiso       1.00
      C156          C  0.7821162  0.8164247  0.7379883    0.00000       Uiso       1.00
      C157          C  0.7693820  0.7932988  0.7354054    0.00000       Uiso       1.00
      C158          C  0.7570073  0.7853321  0.7246615    0.00000       Uiso       1.00
      C159          C  0.7574250  0.8007607  0.7166537    0.00000       Uiso       1.00
       H68          H  0.7478994  0.7949942  0.7084137    0.00000       Uiso       1.00
       H69          H  0.7915519  0.8222918  0.7463499    0.00000       Uiso       1.00
       H70          H  0.7692579  0.7816946  0.7417877    0.00000       Uiso       1.00
      C160          C  0.8544803  0.0923607  0.6948766    0.00000       Uiso       1.00
      C161          C  0.8439739  0.1049314  0.7100019    0.00000       Uiso       1.00
      C162          C  0.8626201  0.0929088  0.6718439    0.00000       Uiso       1.00
      C163          C  0.8600315  0.1056418  0.6640475    0.00000       Uiso       1.00
      C164          C  0.8492820  0.1180116  0.6792153    0.00000       Uiso       1.00
      C165          C  0.8412743  0.1175904  0.7022373    0.00000       Uiso       1.00
       H71          H  0.8330301  0.1271124  0.7142486    0.00000       Uiso       1.00
       H72          H  0.8709859  0.0834767  0.6599013    0.00000       Uiso       1.00
       H73          H  0.8664136  0.1057687  0.6461824    0.00000       Uiso       1.00
      C166          C  0.8195409  0.0205260  0.9184817    0.00000       Uiso       1.00
      C167          C  0.8346616  0.0310392  0.9264360    0.00000       Uiso       1.00
      C168          C  0.7965118  0.0123760  0.9339257    0.00000       Uiso       1.00
      C169          C  0.7887143  0.0149610  0.9570494    0.00000       Uiso       1.00
      C170          C  0.8038772  0.0257173  0.9650038    0.00000       Uiso       1.00
      C171          C  0.8268958  0.0337352  0.9495651    0.00000       Uiso       1.00
       H74          H  0.8389034  0.0419849  0.9553220    0.00000       Uiso       1.00
       H75          H  0.7845730  0.0040048  0.9280683    0.00000       Uiso       1.00
       H76          H  0.7708521  0.0085709  0.9686617    0.00000       Uiso       1.00
      Br33         Br  0.7697573  0.8440054  0.7087112    0.00000       Uiso       1.00
      Br34         Br  0.0309777  0.0093614  0.6450148    0.00000       Uiso       1.00
      Br35         Br  0.8657395  0.0416895  0.9063086    0.00000       Uiso       1.00
      Br36         Br  0.8333375  0.1052545  0.7410846    0.00000       Uiso       1.00
      C172          C  0.9809956  0.0224161  0.6767623    0.00000       Uiso       1.00
      C173          C  0.9720464  0.0326057  0.6971604    0.00000       Uiso       1.00
      C174          C  0.9867394  0.0502989  0.7045341    0.00000       Uiso       1.00
      C175          C  0.0095816  0.0575195  0.6920108    0.00000       Uiso       1.00
      C176          C  0.0185887  0.0474749  0.6714778    0.00000       Uiso       1.00
      C177          C  0.0039014  0.0297859  0.6640537    0.00000       Uiso       1.00
       H77          H  0.0101117  0.0217561  0.6482735    0.00000       Uiso       1.00
       H78          H  0.9805630  0.0587559  0.7199495    0.00000       Uiso       1.00
      C178          C  0.8218767  0.9029602  0.7387704    0.00000       Uiso       1.00
      C179          C  0.8014826  0.8940017  0.7400309    0.00000       Uiso       1.00
      C180          C  0.8292570  0.8882705  0.7343804    0.00000       Uiso       1.00
      C181          C  0.8167439  0.8654225  0.7312671    0.00000       Uiso       1.00
      C182          C  0.7962148  0.8564062  0.7327498    0.00000       Uiso       1.00
      C183          C  0.7887842  0.8710902  0.7371888    0.00000       Uiso       1.00
       H79          H  0.7730066  0.8648728  0.7387306    0.00000       Uiso       1.00
       H80          H  0.8446699  0.8944538  0.7335967    0.00000       Uiso       1.00
      C184          C  0.8634200  0.0531486  0.7178007    0.00000       Uiso       1.00
      C185          C  0.8646713  0.0735432  0.7279936    0.00000       Uiso       1.00
      C186          C  0.8590333  0.0457664  0.7001160    0.00000       Uiso       1.00
      C187          C  0.8559144  0.0582780  0.6929070    0.00000       Uiso       1.00
      C188          C  0.8573879  0.0788077  0.7029548    0.00000       Uiso       1.00
      C189          C  0.8618234  0.0862404  0.7206353    0.00000       Uiso       1.00
       H81          H  0.8676066  0.0795383  0.7418863    0.00000       Uiso       1.00
       H82          H  0.8521280  0.0517178  0.6795572    0.00000       Uiso       1.00
      C190          C  0.8424689  0.0115964  0.8473876    0.00000       Uiso       1.00
      C191          C  0.8526626  0.0103500  0.8563322    0.00000       Uiso       1.00
      C192          C  0.8247821  0.0159748  0.8620885    0.00000       Uiso       1.00
      C193          C  0.8175717  0.0190907  0.8849341    0.00000       Uiso       1.00
      C194          C  0.8276204  0.0176220  0.8939366    0.00000       Uiso       1.00
      C195          C  0.8453030  0.0131946  0.8792413    0.00000       Uiso       1.00
       H83          H  0.8533356  0.0116636  0.8854481    0.00000       Uiso       1.00
       H84          H  0.8163222  0.0167476  0.8559160    0.00000       Uiso       1.00
      Br37         Br  0.7908886  0.9131489  0.7452241    0.00000       Uiso       1.00
      Br38         Br  0.8283241  0.8467476  0.7245761    0.00000       Uiso       1.00
      Br39         Br  0.9618431  0.9978493  0.6661770    0.00000       Uiso       1.00
      Br40         Br  0.0282616  0.0811023  0.7035827    0.00000       Uiso       1.00
      Br41         Br  0.7939972  0.0257657  0.9036246    0.00000       Uiso       1.00
      Br42         Br  0.8772203  0.0051730  0.8371693    0.00000       Uiso       1.00
      Br43         Br  0.8645334  0.1141027  0.7348185    0.00000       Uiso       1.00
      Br44         Br  0.8576604  0.0185195  0.6851618    0.00000       Uiso       1.00
      C196          C  0.9119478  0.0091865  0.7132951    0.00000       Uiso       1.00
      C197          C  0.9005775  0.0088953  0.7368393    0.00000       Uiso       1.00
      C198          C  0.9136854  0.0178624  0.7469195    0.00000       Uiso       1.00
      C199          C  0.9365482  0.0252315  0.7341552    0.00000       Uiso       1.00
      C200          C  0.9475253  0.0247300  0.7107567    0.00000       Uiso       1.00
      C201          C  0.9348838  0.0168245  0.7005202    0.00000       Uiso       1.00
       H85          H  0.9028196  0.0031890  0.7047669    0.00000       Uiso       1.00
       H86          H  0.9427598  0.0168077  0.6825694    0.00000       Uiso       1.00
       H87          H  0.9066560  0.0194898  0.7647172    0.00000       Uiso       1.00
      C202          C  0.8615236  0.9744468  0.7468963    0.00000       Uiso       1.00
      C203          C  0.8379844  0.9630658  0.7593618    0.00000       Uiso       1.00
      C204          C  0.8716097  0.9613435  0.7326587    0.00000       Uiso       1.00
      C205          C  0.8588557  0.9384750  0.7299146    0.00000       Uiso       1.00
      C206          C  0.8354621  0.9274874  0.7418354    0.00000       Uiso       1.00
      C207          C  0.8252199  0.9401242  0.7568239    0.00000       Uiso       1.00
       H88          H  0.8294522  0.9721903  0.7710330    0.00000       Uiso       1.00
       H89          H  0.8072726  0.9322402  0.7668831    0.00000       Uiso       1.00
       H90          H  0.8894042  0.9683809  0.7235159    0.00000       Uiso       1.00
      C208          C  0.8715636  0.0135053  0.7414755    0.00000       Uiso       1.00
      C209          C  0.8840183  0.0370500  0.7411839    0.00000       Uiso       1.00
      C210          C  0.8573308  0.0034128  0.7325207    0.00000       Uiso       1.00
      C211          C  0.8545809  0.0161656  0.7251630    0.00000       Uiso       1.00
      C212          C  0.8664909  0.0395646  0.7256641    0.00000       Uiso       1.00
      C213          C  0.8814747  0.0498134  0.7335574    0.00000       Uiso       1.00
       H91          H  0.8956856  0.0455876  0.7471722    0.00000       Uiso       1.00
       H92          H  0.8915257  0.0677653  0.7335732    0.00000       Uiso       1.00
       H93          H  0.8481955  0.9856135  0.7308944    0.00000       Uiso       1.00
      C214          C  0.8661473  0.0034634  0.7759080    0.00000       Uiso       1.00
      C215          C  0.8658611  0.9910080  0.7872785    0.00000       Uiso       1.00
      C216          C  0.8571855  0.0176918  0.7890200    0.00000       Uiso       1.00
      C217          C  0.8498266  0.0204383  0.8118861    0.00000       Uiso       1.00
      C218          C  0.8503336  0.0085289  0.8228629    0.00000       Uiso       1.00
      C219          C  0.8582334  0.9935482  0.8102177    0.00000       Uiso       1.00
       H94          H  0.8718548  0.9793437  0.7781474    0.00000       Uiso       1.00
       H95          H  0.8582541  0.9834976  0.8180936    0.00000       Uiso       1.00
       H96          H  0.8555547  0.0268254  0.7819914    0.00000       Uiso       1.00
      Br45         Br  0.8740460  0.9225304  0.7091924    0.00000       Uiso       1.00
      Br46         Br  0.9524996  0.0356653  0.7493384    0.00000       Uiso       1.00
      Br47         Br  0.8393993  0.0411482  0.8278422    0.00000       Uiso       1.00
      Br48         Br  0.8338658  0.0009660  0.7147458    0.00000       Uiso       1.00
      C220          C  0.3748403  0.8748531  0.3750564    0.00000       Uiso       1.00
      C221          C  0.2699367  0.7389884  0.3038035    0.00000       Uiso       1.00
      C222          C  0.2824986  0.7620635  0.2991960    0.00000       Uiso       1.00
      C223          C  0.2819335  0.7696484  0.2843170    0.00000       Uiso       1.00
      C224          C  0.2691924  0.7543222  0.2739345    0.00000       Uiso       1.00
      C225          C  0.2568313  0.7312049  0.2783411    0.00000       Uiso       1.00
      C226          C  0.2572696  0.7236252  0.2933417    0.00000       Uiso       1.00
       H97          H  0.2477547  0.7058607  0.2970996    0.00000       Uiso       1.00
       H98          H  0.2913586  0.7874447  0.2807494    0.00000       Uiso       1.00
       H99          H  0.2690523  0.7605723  0.2624623    0.00000       Uiso       1.00
      C227          C  0.3545182  0.7990434  0.4877458    0.00000       Uiso       1.00
      C228          C  0.3440189  0.8036612  0.5108240    0.00000       Uiso       1.00
      C229          C  0.3626717  0.7841609  0.4801435    0.00000       Uiso       1.00
      C230          C  0.3601040  0.7737852  0.4954559    0.00000       Uiso       1.00
      C231          C  0.3493616  0.7782022  0.5185765    0.00000       Uiso       1.00
      C232          C  0.3413401  0.7932062  0.5261734    0.00000       Uiso       1.00
      H100          H  0.3331010  0.7969721  0.5439407    0.00000       Uiso       1.00
      H101          H  0.3710323  0.7805853  0.4623446    0.00000       Uiso       1.00
      H102          H  0.3664965  0.7623103  0.4891927    0.00000       Uiso       1.00
      C233          C  0.3193453  0.9875765  0.4509827    0.00000       Uiso       1.00
      C234          C  0.3344553  0.0106535  0.4463741    0.00000       Uiso       1.00
      C235          C  0.2963158  0.9799810  0.4658723    0.00000       Uiso       1.00
      C236          C  0.2885068  0.9952980  0.4762640    0.00000       Uiso       1.00
      C237          C  0.3036593  0.0184174  0.4718561    0.00000       Uiso       1.00
      C238          C  0.3266782  0.0260076  0.4568451    0.00000       Uiso       1.00
      H103          H  0.3386772  0.0437732  0.4530861    0.00000       Uiso       1.00
      H104          H  0.2843854  0.9621837  0.4694411    0.00000       Uiso       1.00
      H105          H  0.2706445  0.9890400  0.4877442    0.00000       Uiso       1.00
      C239          C  0.5429990  0.9507289  0.2623008    0.00000       Uiso       1.00
      C240          C  0.5509508  0.9461099  0.2392236    0.00000       Uiso       1.00
      C241          C  0.5584401  0.9656218  0.2698924    0.00000       Uiso       1.00
      C242          C  0.5815580  0.9760067  0.2545709    0.00000       Uiso       1.00
      C243          C  0.5895096  0.9715885  0.2314515    0.00000       Uiso       1.00
      C244          C  0.5740739  0.9565740  0.2238651    0.00000       Uiso       1.00
      H106          H  0.5798289  0.9528071  0.2060989    0.00000       Uiso       1.00
      H107          H  0.5525848  0.9691986  0.2876903    0.00000       Uiso       1.00
      H108          H  0.5931680  0.9874897  0.2608261    0.00000       Uiso       1.00
      Br49         Br  0.3333644  0.8240936  0.5217973    0.00000       Uiso       1.00
      Br50         Br  0.2696368  0.7280380  0.3242310    0.00000       Uiso       1.00
      Br51         Br  0.5308276  0.9256637  0.2282641    0.00000       Uiso       1.00
      Br52         Br  0.3655329  0.0216176  0.4259329    0.00000       Uiso       1.00
      C245          C  0.3013503  0.7910914  0.3424938    0.00000       Uiso       1.00
      C246          C  0.3217352  0.8102297  0.3310536    0.00000       Uiso       1.00
      C247          C  0.3290995  0.8132154  0.3089883    0.00000       Uiso       1.00
      C248          C  0.3165801  0.7975801  0.2986621    0.00000       Uiso       1.00
      C249          C  0.2960601  0.7785289  0.3101795    0.00000       Uiso       1.00
      C250          C  0.2886453  0.7755417  0.3322895    0.00000       Uiso       1.00
      H109          H  0.2728750  0.7613025  0.3418531    0.00000       Uiso       1.00
      H110          H  0.3445047  0.8278477  0.2997557    0.00000       Uiso       1.00
      C251          C  0.3633942  0.8308792  0.4396218    0.00000       Uiso       1.00
      C252          C  0.3646536  0.8423281  0.4587605    0.00000       Uiso       1.00
      C253          C  0.3590206  0.8088126  0.4366217    0.00000       Uiso       1.00
      C254          C  0.3559221  0.7984934  0.4522434    0.00000       Uiso       1.00
      C255          C  0.3574038  0.8100194  0.4712949    0.00000       Uiso       1.00
      C256          C  0.3618262  0.8321308  0.4742966    0.00000       Uiso       1.00
      H111          H  0.3633666  0.8417009  0.4885366    0.00000       Uiso       1.00
      H112          H  0.3582383  0.7995734  0.4219884    0.00000       Uiso       1.00
      C257          C  0.3423085  0.9394383  0.4190974    0.00000       Uiso       1.00
      C258          C  0.3524838  0.9585720  0.4076617    0.00000       Uiso       1.00
      C259          C  0.3246285  0.9364480  0.4411673    0.00000       Uiso       1.00
      C260          C  0.3174069  0.9520743  0.4515023    0.00000       Uiso       1.00
      C261          C  0.3274370  0.9711208  0.4399896    0.00000       Uiso       1.00
      C262          C  0.3451128  0.9741126  0.4178749    0.00000       Uiso       1.00
      H113          H  0.3663724  0.9616277  0.3908351    0.00000       Uiso       1.00
      H114          H  0.3040613  0.9493053  0.4686373    0.00000       Uiso       1.00
      C263          C  0.4719232  0.9188651  0.3104526    0.00000       Uiso       1.00
      C264          C  0.4808735  0.9074210  0.2913091    0.00000       Uiso       1.00
      C265          C  0.4866123  0.9409363  0.3134483    0.00000       Uiso       1.00
      C266          C  0.5094519  0.9512643  0.2978177    0.00000       Uiso       1.00
      C267          C  0.5184603  0.9397431  0.2787613    0.00000       Uiso       1.00
      C268          C  0.5037769  0.9176272  0.2757641    0.00000       Uiso       1.00
      H115          H  0.5099885  0.9080607  0.2615204    0.00000       Uiso       1.00
      H116          H  0.4804353  0.9501724  0.3280848    0.00000       Uiso       1.00
      Br53         Br  0.3698248  0.8720653  0.4641747    0.00000       Uiso       1.00
      Br54         Br  0.3492530  0.7682415  0.4473407    0.00000       Uiso       1.00
      Br55         Br  0.2907784  0.7856967  0.3722285    0.00000       Uiso       1.00
      Br56         Br  0.3281392  0.8024639  0.2684125    0.00000       Uiso       1.00
      Br57         Br  0.5281259  0.9815214  0.3027153    0.00000       Uiso       1.00
      Br58         Br  0.4617263  0.8776777  0.2859010    0.00000       Uiso       1.00
      Br59         Br  0.3592722  0.9992512  0.4009930    0.00000       Uiso       1.00
      Br60         Br  0.3096981  0.9105870  0.4574829    0.00000       Uiso       1.00
      C269          C  0.3378640  0.8469463  0.3750338    0.00000       Uiso       1.00
      C270          C  0.3614034  0.8580307  0.3628649    0.00000       Uiso       1.00
      C271          C  0.3714814  0.8538800  0.3396750    0.00000       Uiso       1.00
      C272          C  0.3587208  0.8383728  0.3295695    0.00000       Uiso       1.00
      C273          C  0.3353276  0.8268895  0.3419858    0.00000       Uiso       1.00
      C274          C  0.3250925  0.8316348  0.3648660    0.00000       Uiso       1.00
      H117          H  0.3293371  0.8500839  0.3926917    0.00000       Uiso       1.00
      H118          H  0.3071452  0.8237386  0.3749373    0.00000       Uiso       1.00
      H119          H  0.3892744  0.8625391  0.3289106    0.00000       Uiso       1.00
      C275          C  0.3714737  0.8626692  0.3918633    0.00000       Uiso       1.00
      C276          C  0.3839389  0.8748429  0.4029424    0.00000       Uiso       1.00
      C277          C  0.3572524  0.8394811  0.3960044    0.00000       Uiso       1.00
      C278          C  0.3545231  0.8293826  0.4114980    0.00000       Uiso       1.00
      C279          C  0.3664431  0.8418039  0.4229764    0.00000       Uiso       1.00
      C280          C  0.3814159  0.8646819  0.4182402    0.00000       Uiso       1.00
      H120          H  0.3955981  0.8924994  0.3998114    0.00000       Uiso       1.00
      H121          H  0.3914741  0.8747567  0.4261329    0.00000       Uiso       1.00
      H122          H  0.3481113  0.8287129  0.3873478    0.00000       Uiso       1.00
      C281          C  0.3660224  0.8916655  0.3872577    0.00000       Uiso       1.00
      C282          C  0.3657154  0.9027394  0.3750994    0.00000       Uiso       1.00
      C283          C  0.3570703  0.8958168  0.4104471    0.00000       Uiso       1.00
      C284          C  0.3497000  0.9113150  0.4205616    0.00000       Uiso       1.00
      C285          C  0.3501855  0.9227881  0.4081556    0.00000       Uiso       1.00
      C286          C  0.3580762  0.9180419  0.3852765    0.00000       Uiso       1.00
      H123          H  0.3717012  0.8996007  0.3574426    0.00000       Uiso       1.00
      H124          H  0.3580805  0.9259301  0.3752131    0.00000       Uiso       1.00
      H125          H  0.3554559  0.8871650  0.4212042    0.00000       Uiso       1.00
      C287          C  0.4004615  0.8870468  0.3582394    0.00000       Uiso       1.00
      C288          C  0.4118430  0.8748835  0.3471492    0.00000       Uiso       1.00
      C289          C  0.4135568  0.9102345  0.3540995    0.00000       Uiso       1.00
      C290          C  0.4364171  0.9203421  0.3385970    0.00000       Uiso       1.00
      C291          C  0.4474048  0.9079308  0.3271076    0.00000       Uiso       1.00
      C292          C  0.4347766  0.8850537  0.3318422    0.00000       Uiso       1.00
      H126          H  0.4027251  0.8572281  0.3502786    0.00000       Uiso       1.00
      H127          H  0.4426615  0.8749867  0.3239411    0.00000       Uiso       1.00
      H128          H  0.4065192  0.9209956  0.3627638    0.00000       Uiso       1.00
      Br61         Br  0.3338219  0.7982482  0.4170160    0.00000       Uiso       1.00
      Br62         Br  0.3739018  0.8328433  0.2984325    0.00000       Uiso       1.00
      Br63         Br  0.4523500  0.9514747  0.3330821    0.00000       Uiso       1.00
      Br64         Br  0.3392871  0.9168466  0.4516965    0.00000       Uiso       1.00
      C293          C  0.1249518  0.7501885  0.0001685    0.00000       Uiso       1.00
      C294          C  0.9488136  0.6452424  0.0405390    0.00000       Uiso       1.00
      C295          C  0.9567748  0.6578213  0.0556562    0.00000       Uiso       1.00
      C296          C  0.9413410  0.6572700  0.0786921    0.00000       Uiso       1.00
      C297          C  0.9182208  0.6445255  0.0864999    0.00000       Uiso       1.00
      C298          C  0.9102596  0.6321473  0.0713406    0.00000       Uiso       1.00
      C299          C  0.9256881  0.6325718  0.0483152    0.00000       Uiso       1.00
      H129          H  0.9199257  0.6230436  0.0363102    0.00000       Uiso       1.00
      H130          H  0.9472038  0.6667084  0.0906283    0.00000       Uiso       1.00
      H131          H  0.9066166  0.6443962  0.1043674    0.00000       Uiso       1.00
      C300          C  0.2172447  0.7297578  0.8319494    0.00000       Uiso       1.00
      C301          C  0.2298201  0.7192569  0.8239826    0.00000       Uiso       1.00
      C302          C  0.2177891  0.7378978  0.8165154    0.00000       Uiso       1.00
      C303          C  0.2305233  0.7353149  0.7933895    0.00000       Uiso       1.00
      C304          C  0.2428979  0.7245709  0.7854228    0.00000       Uiso       1.00
      C305          C  0.2424802  0.7165630  0.8008515    0.00000       Uiso       1.00
      H132          H  0.2520059  0.7083231  0.7950849    0.00000       Uiso       1.00
      H133          H  0.2083533  0.7462593  0.8223825    0.00000       Uiso       1.00
      H134          H  0.2306473  0.7416971  0.7817852    0.00000       Uiso       1.00
      C306          C  0.1454246  0.6947854  0.0924514    0.00000       Uiso       1.00
      C307          C  0.1559311  0.7099108  0.1050221    0.00000       Uiso       1.00
      C308          C  0.1372849  0.6717526  0.0929995    0.00000       Uiso       1.00
      C309          C  0.1398734  0.6639563  0.1057325    0.00000       Uiso       1.00
      C310          C  0.1506229  0.6791241  0.1181023    0.00000       Uiso       1.00
      C311          C  0.1586306  0.7021462  0.1176811    0.00000       Uiso       1.00
      H135          H  0.1668749  0.7141574  0.1272030    0.00000       Uiso       1.00
      H136          H  0.1289190  0.6598101  0.0835675    0.00000       Uiso       1.00
      H137          H  0.1334913  0.6460912  0.1058594    0.00000       Uiso       1.00
      C312          C  0.1803641  0.9183904  0.0206165    0.00000       Uiso       1.00
      C313          C  0.1652434  0.9263448  0.0311297    0.00000       Uiso       1.00
      C314          C  0.2033931  0.9338344  0.0124664    0.00000       Uiso       1.00
      C315          C  0.2111906  0.9569581  0.0150515    0.00000       Uiso       1.00
      C316          C  0.1960277  0.9649126  0.0258078    0.00000       Uiso       1.00
      C317          C  0.1730092  0.9494738  0.0338257    0.00000       Uiso       1.00
      H138          H  0.1610016  0.9552308  0.0420754    0.00000       Uiso       1.00
      H139          H  0.2153319  0.9279770  0.0040953    0.00000       Uiso       1.00
      H140          H  0.2290529  0.9685704  0.0086614    0.00000       Uiso       1.00
      Br65         Br  0.2301479  0.7086206  0.8440961    0.00000       Uiso       1.00
      Br66         Br  0.9689271  0.6449235  0.0094522    0.00000       Uiso       1.00
      Br67         Br  0.1341655  0.9062173  0.0417800    0.00000       Uiso       1.00
      Br68         Br  0.1665675  0.7409934  0.1053452    0.00000       Uiso       1.00
      C318          C  0.0189092  0.6766711  0.0225068    0.00000       Uiso       1.00
      C319          C  0.0278585  0.6970691  0.0326964    0.00000       Uiso       1.00
      C320          C  0.0131655  0.7044427  0.0503896    0.00000       Uiso       1.00
      C321          C  0.9903232  0.6919196  0.0576101    0.00000       Uiso       1.00
      C322          C  0.9813161  0.6713866  0.0475657    0.00000       Uiso       1.00
      C323          C  0.9960035  0.6639625  0.0298766    0.00000       Uiso       1.00
      H141          H  0.9897931  0.6481822  0.0218468    0.00000       Uiso       1.00
      H142          H  0.0193419  0.7198583  0.0588466    0.00000       Uiso       1.00
      C324          C  0.1780286  0.7386799  0.9030508    0.00000       Uiso       1.00
      C325          C  0.1984227  0.7399405  0.8940924    0.00000       Uiso       1.00
      C326          C  0.1706483  0.7342899  0.8883612    0.00000       Uiso       1.00
      C327          C  0.1831613  0.7311766  0.8655131    0.00000       Uiso       1.00
      C328          C  0.2036904  0.7326592  0.8564969    0.00000       Uiso       1.00
      C329          C  0.2111211  0.7370982  0.8711808    0.00000       Uiso       1.00
      H143          H  0.2268987  0.7386401  0.8649634    0.00000       Uiso       1.00
      H144          H  0.1552354  0.7335062  0.8945445    0.00000       Uiso       1.00
      C330          C  0.1364850  0.7177095  0.0532393    0.00000       Uiso       1.00
      C331          C  0.1352337  0.7279024  0.0736339    0.00000       Uiso       1.00
      C332          C  0.1408715  0.7000248  0.0458571    0.00000       Uiso       1.00
      C333          C  0.1439905  0.6928157  0.0583687    0.00000       Uiso       1.00
      C334          C  0.1425171  0.7028636  0.0788984    0.00000       Uiso       1.00
      C335          C  0.1380816  0.7205441  0.0863310    0.00000       Uiso       1.00
      H145          H  0.1322983  0.7417951  0.0796289    0.00000       Uiso       1.00
      H146          H  0.1477769  0.6794659  0.0518085    0.00000       Uiso       1.00
      C336          C  0.1574361  0.8472963  0.0116870    0.00000       Uiso       1.00
      C337          C  0.1472424  0.8562409  0.0104405    0.00000       Uiso       1.00
      C338          C  0.1751229  0.8619972  0.0160654    0.00000       Uiso       1.00
      C339          C  0.1823332  0.8848429  0.0191812    0.00000       Uiso       1.00
      C340          C  0.1722846  0.8938454  0.0177125    0.00000       Uiso       1.00
      C341          C  0.1546019  0.8791502  0.0132851    0.00000       Uiso       1.00
      H147          H  0.1465693  0.8853569  0.0117542    0.00000       Uiso       1.00
      H148          H  0.1835827  0.8558246  0.0168381    0.00000       Uiso       1.00
      Br69         Br  0.2090166  0.7451336  0.9132395    0.00000       Uiso       1.00
      Br70         Br  0.1715810  0.7244855  0.8468384    0.00000       Uiso       1.00
      Br71         Br  0.0380621  0.6660866  0.9979400    0.00000       Uiso       1.00
      Br72         Br  0.9716433  0.7034915  0.0811930    0.00000       Uiso       1.00
      Br73         Br  0.2059078  0.9035333  0.0258562    0.00000       Uiso       1.00
      Br74         Br  0.1226847  0.8370780  0.0052636    0.00000       Uiso       1.00
      Br75         Br  0.1353715  0.7347273  0.1141934    0.00000       Uiso       1.00
      Br76         Br  0.1422445  0.6850706  0.0186102    0.00000       Uiso       1.00
      C342          C  0.0879571  0.7132038  0.0092771    0.00000       Uiso       1.00
      C343          C  0.0993274  0.7367480  0.0089859    0.00000       Uiso       1.00
      C344          C  0.0862195  0.7468282  0.0179530    0.00000       Uiso       1.00
      C345          C  0.0633567  0.7340640  0.0253222    0.00000       Uiso       1.00
      C346          C  0.0523796  0.7106655  0.0248207    0.00000       Uiso       1.00
      C347          C  0.0650212  0.7004290  0.0169152    0.00000       Uiso       1.00
      H149          H  0.0970853  0.7046756  0.0032797    0.00000       Uiso       1.00
      H150          H  0.0571452  0.6824781  0.0168984    0.00000       Uiso       1.00
      H151          H  0.0932489  0.7646259  0.0195804    0.00000       Uiso       1.00
      C348          C  0.1383817  0.7468058  0.9745374    0.00000       Uiso       1.00
      C349          C  0.1619208  0.7592713  0.9631565    0.00000       Uiso       1.00
      C350          C  0.1282956  0.7325683  0.9614341    0.00000       Uiso       1.00
      C351          C  0.1410496  0.7298241  0.9385656    0.00000       Uiso       1.00
      C352          C  0.1644432  0.7417448  0.9275780    0.00000       Uiso       1.00
      C353          C  0.1746854  0.7567334  0.9402149    0.00000       Uiso       1.00
      H152          H  0.1704531  0.7709424  0.9722809    0.00000       Uiso       1.00
      H153          H  0.1926327  0.7667927  0.9323308    0.00000       Uiso       1.00
      H154          H  0.1105011  0.7234255  0.9684716    0.00000       Uiso       1.00
      C354          C  0.1283413  0.7413842  0.0135960    0.00000       Uiso       1.00
      C355          C  0.1158866  0.7410927  0.0371407    0.00000       Uiso       1.00
      C356          C  0.1425741  0.7324294  0.0035035    0.00000       Uiso       1.00
      C357          C  0.1453240  0.7250717  0.0162563    0.00000       Uiso       1.00
      C358          C  0.1334140  0.7255729  0.0396552    0.00000       Uiso       1.00
      C359          C  0.1184302  0.7334661  0.0499041    0.00000       Uiso       1.00
      H155          H  0.1042194  0.7470809  0.0456782    0.00000       Uiso       1.00
      H156          H  0.1083792  0.7334820  0.0678559    0.00000       Uiso       1.00
      H157          H  0.1517098  0.7308040  0.9857041    0.00000       Uiso       1.00
      C360          C  0.1337576  0.7758167  0.0035540    0.00000       Uiso       1.00
      C361          C  0.1340443  0.7871880  0.9910986    0.00000       Uiso       1.00
      C362          C  0.1427194  0.7889287  0.0177824    0.00000       Uiso       1.00
      C363          C  0.1500783  0.8117948  0.0205289    0.00000       Uiso       1.00
      C364          C  0.1495713  0.8227716  0.0086195    0.00000       Uiso       1.00
      C365          C  0.1416720  0.8101273  0.9936388    0.00000       Uiso       1.00
      H158          H  0.1280505  0.7780569  0.9794344    0.00000       Uiso       1.00
      H159          H  0.1416512  0.8180032  0.9835881    0.00000       Uiso       1.00
      H160          H  0.1443502  0.7819001  0.0269160    0.00000       Uiso       1.00
      Br77         Br  0.1258593  0.7091019  0.9226211    0.00000       Uiso       1.00
      Br78         Br  0.0474053  0.7492472  0.0357559    0.00000       Uiso       1.00
      Br79         Br  0.1605057  0.8277510  0.0412387    0.00000       Uiso       1.00
      Br80         Br  0.1660392  0.7146544  0.0010567    0.00000       Uiso       1.00
      C366          C  0.9999527  0.2495739  0.2501121    0.00000       Uiso       1.00
      C367          C  0.9287746  0.2187206  0.4262546    0.00000       Uiso       1.00
      C368          C  0.9241521  0.2292179  0.4183049    0.00000       Uiso       1.00
      C369          C  0.9092660  0.2373648  0.4337526    0.00000       Uiso       1.00
      C370          C  0.8988915  0.2347923  0.4568751    0.00000       Uiso       1.00
      C371          C  0.9033133  0.2240519  0.4648248    0.00000       Uiso       1.00
      C372          C  0.9183208  0.2160372  0.4493824    0.00000       Uiso       1.00
      H161          H  0.9220904  0.2077997  0.4551357    0.00000       Uiso       1.00
      H162          H  0.9056867  0.2457238  0.4278989    0.00000       Uiso       1.00
      H163          H  0.8874137  0.2411797  0.4684902    0.00000       Uiso       1.00
      C373          C  0.1127008  0.1941292  0.1577201    0.00000       Uiso       1.00
      C374          C  0.1357702  0.2092490  0.1451479    0.00000       Uiso       1.00
      C375          C  0.1051155  0.1710963  0.1571585    0.00000       Uiso       1.00
      C376          C  0.1204360  0.1632942  0.1444104    0.00000       Uiso       1.00
      C377          C  0.1435478  0.1784564  0.1320390    0.00000       Uiso       1.00
      C378          C  0.1511277  0.2014787  0.1324739    0.00000       Uiso       1.00
      H164          H  0.1688880  0.2134857  0.1229511    0.00000       Uiso       1.00
      H165          H  0.0873235  0.1591579  0.1665915    0.00000       Uiso       1.00
      H166          H  0.1141859  0.1454290  0.1442731    0.00000       Uiso       1.00
      C379          C  0.0757532  0.4177666  0.2297560    0.00000       Uiso       1.00
      C380          C  0.0711307  0.4257163  0.2192588    0.00000       Uiso       1.00
      C381          C  0.0906392  0.4332143  0.2379029    0.00000       Uiso       1.00
      C382          C  0.1010138  0.4563369  0.2353304    0.00000       Uiso       1.00
      C383          C  0.0965920  0.4642865  0.2245900    0.00000       Uiso       1.00
      C384          C  0.0815844  0.4488441  0.2165753    0.00000       Uiso       1.00
      H167          H  0.0778149  0.4545974  0.2083378    0.00000       Uiso       1.00
      H168          H  0.0942186  0.4273606  0.2462619    0.00000       Uiso       1.00
      H169          H  0.1124916  0.4679519  0.2417178    0.00000       Uiso       1.00
      C385          C  0.8872044  0.1571818  0.1946676    0.00000       Uiso       1.00
      C386          C  0.8641350  0.1446096  0.2097874    0.00000       Uiso       1.00
      C387          C  0.8947896  0.1566201  0.1716347    0.00000       Uiso       1.00
      C388          C  0.8794691  0.1438721  0.1638326    0.00000       Uiso       1.00
      C389          C  0.8563573  0.1315007  0.1789948    0.00000       Uiso       1.00
      C390          C  0.8487774  0.1319356  0.2020171    0.00000       Uiso       1.00
      H170          H  0.8310171  0.1224127  0.2140241    0.00000       Uiso       1.00
      H171          H  0.9125816  0.1660531  0.1596963    0.00000       Uiso       1.00
      H172          H  0.8857192  0.1437348  0.1459674    0.00000       Uiso       1.00
      Br81         Br  0.1467204  0.2403315  0.1448430    0.00000       Uiso       1.00
      Br82         Br  0.9492117  0.2080753  0.4061224    0.00000       Uiso       1.00
      Br83         Br  0.8531848  0.1443047  0.2408698    0.00000       Uiso       1.00
      Br84         Br  0.0506935  0.4055840  0.2086135    0.00000       Uiso       1.00
      C391          C  0.9674323  0.2393727  0.3561600    0.00000       Uiso       1.00
      C392          C  0.9559841  0.2381083  0.3472148    0.00000       Uiso       1.00
      C393          C  0.9339194  0.2337250  0.3619137    0.00000       Uiso       1.00
      C394          C  0.9236016  0.2306218  0.3847580    0.00000       Uiso       1.00
      C395          C  0.9351269  0.2321084  0.3937612    0.00000       Uiso       1.00
      C396          C  0.9572363  0.2365406  0.3790680    0.00000       Uiso       1.00
      H173          H  0.9668056  0.2380851  0.3852754    0.00000       Uiso       1.00
      H174          H  0.9246806  0.2329387  0.3557408    0.00000       Uiso       1.00
      C397          C  0.0645523  0.2170709  0.1969783    0.00000       Uiso       1.00
      C398          C  0.0836813  0.2272546  0.1765847    0.00000       Uiso       1.00
      C399          C  0.0615699  0.1993897  0.2043441    0.00000       Uiso       1.00
      C400          C  0.0771995  0.1921750  0.1918176    0.00000       Uiso       1.00
      C401          C  0.0962414  0.2022136  0.1712890    0.00000       Uiso       1.00
      C402          C  0.0992252  0.2198906  0.1638728    0.00000       Uiso       1.00
      H175          H  0.1134574  0.2279153  0.1480960    0.00000       Uiso       1.00
      H176          H  0.0469446  0.1909373  0.2197559    0.00000       Uiso       1.00
      C403          C  0.0439213  0.3466764  0.2386463    0.00000       Uiso       1.00
      C404          C  0.0324730  0.3556217  0.2399107    0.00000       Uiso       1.00
      C405          C  0.0659859  0.3613754  0.2342630    0.00000       Uiso       1.00
      C406          C  0.0763037  0.3842196  0.2311598    0.00000       Uiso       1.00
      C407          C  0.0647784  0.3932229  0.2326465    0.00000       Uiso       1.00
      C408          C  0.0426690  0.3785297  0.2370787    0.00000       Uiso       1.00
      H177          H  0.0156499  0.3447813  0.2428439    0.00000       Uiso       1.00
      H178          H  0.0934352  0.3948033  0.2273752    0.00000       Uiso       1.00
      C409          C  0.9353529  0.1964399  0.2176092    0.00000       Uiso       1.00
      C410          C  0.9162237  0.1760466  0.2277932    0.00000       Uiso       1.00
      C411          C  0.9383355  0.2038055  0.1999277    0.00000       Uiso       1.00
      C412          C  0.9227058  0.1912791  0.1927131    0.00000       Uiso       1.00
      C413          C  0.9036638  0.1707507  0.2027519    0.00000       Uiso       1.00
      C414          C  0.9006798  0.1633346  0.2204292    0.00000       Uiso       1.00
      H179          H  0.8864475  0.1475580  0.2284540    0.00000       Uiso       1.00
      H180          H  0.9529610  0.2192172  0.1914750    0.00000       Uiso       1.00
      Br85         Br  0.0890711  0.2518050  0.1660103    0.00000       Uiso       1.00
      Br86         Br  0.0723209  0.1686088  0.2033789    0.00000       Uiso       1.00
      Br87         Br  0.9971671  0.2445570  0.3369995    0.00000       Uiso       1.00
      Br88         Br  0.8933527  0.2239393  0.4034455    0.00000       Uiso       1.00
      Br89         Br  0.9275847  0.2028403  0.1691466    0.00000       Uiso       1.00
      Br90         Br  0.9108336  0.1654724  0.2523438    0.00000       Uiso       1.00
      Br91         Br  0.0257709  0.3894913  0.2398062    0.00000       Uiso       1.00
      Br92         Br  0.0823180  0.3504630  0.2328729    0.00000       Uiso       1.00
      C415          C  0.9999387  0.2586725  0.2871150    0.00000       Uiso       1.00
      C416          C  0.9877703  0.2462020  0.2757389    0.00000       Uiso       1.00
      C417          C  0.9645886  0.2319706  0.2888445    0.00000       Uiso       1.00
      C418          C  0.9544913  0.2292368  0.3117093    0.00000       Uiso       1.00
      C419          C  0.9669074  0.2411622  0.3226916    0.00000       Uiso       1.00
      C420          C  0.9897787  0.2561450  0.3100532    0.00000       Uiso       1.00
      H181          H  0.0175898  0.2703394  0.2779892    0.00000       Uiso       1.00
      H182          H  0.9998491  0.2662076  0.3179336    0.00000       Uiso       1.00
      H183          H  0.9538244  0.2228249  0.2818117    0.00000       Uiso       1.00
      C421          C  0.0167689  0.2407635  0.2366678    0.00000       Uiso       1.00
      C422          C  0.0278427  0.2404611  0.2131234    0.00000       Uiso       1.00
      C423          C  0.0209244  0.2318135  0.2467440    0.00000       Uiso       1.00
      C424          C  0.0364259  0.2244501  0.2339765    0.00000       Uiso       1.00
      C425          C  0.0478985  0.2249404  0.2105782    0.00000       Uiso       1.00
      C426          C  0.0431485  0.2328287  0.2003452    0.00000       Uiso       1.00
      H184          H  0.0247012  0.2464453  0.2045979    0.00000       Uiso       1.00
      H185          H  0.0510366  0.2328363  0.1823944    0.00000       Uiso       1.00
      H186          H  0.0122734  0.2301954  0.2645409    0.00000       Uiso       1.00
      C427          C  0.0121349  0.2752006  0.2467401    0.00000       Uiso       1.00
      C428          C  0.9999667  0.2865767  0.2592104    0.00000       Uiso       1.00
      C429          C  0.0353166  0.2883061  0.2325086    0.00000       Uiso       1.00
      C430          C  0.0454139  0.3111709  0.2297747    0.00000       Uiso       1.00
      C431          C  0.0329979  0.3221532  0.2417001    0.00000       Uiso       1.00
      C432          C  0.0101265  0.3095148  0.2566828    0.00000       Uiso       1.00
      H187          H  0.9823155  0.2774509  0.2708773    0.00000       Uiso       1.00
      H188          H  0.0000562  0.3173953  0.2667454    0.00000       Uiso       1.00
      H189          H  0.0460807  0.2812732  0.2233629    0.00000       Uiso       1.00
      C433          C  0.9831364  0.2361295  0.2413018    0.00000       Uiso       1.00
      C434          C  0.9720621  0.2125851  0.2410000    0.00000       Uiso       1.00
      C435          C  0.9789815  0.2462057  0.2323509    0.00000       Uiso       1.00
      C436          C  0.9634801  0.2334381  0.2249875    0.00000       Uiso       1.00
      C437          C  0.9520068  0.2100398  0.2254786    0.00000       Uiso       1.00
      C438          C  0.9567562  0.1998069  0.2333677    0.00000       Uiso       1.00
      H190          H  0.9752032  0.2040596  0.2469847    0.00000       Uiso       1.00
      H191          H  0.9488676  0.1818560  0.2333759    0.00000       Uiso       1.00
      H192          H  0.9876330  0.2640026  0.2307322    0.00000       Uiso       1.00
      Br93         Br  0.0419625  0.2140400  0.2491550    0.00000       Uiso       1.00
      Br94         Br  0.9233660  0.2085220  0.3276561    0.00000       Uiso       1.00
      Br95         Br  0.9579445  0.2486168  0.2145762    0.00000       Uiso       1.00
      Br96         Br  0.0765392  0.3271177  0.2090599    0.00000       Uiso       1.00
      C439          C  0.6204118  0.5804226  0.6518339    0.00000       Uiso       1.00
      C440          C  0.6253113  0.5755157  0.6642180    0.00000       Uiso       1.00
      C441          C  0.6186733  0.5536265  0.6665922    0.00000       Uiso       1.00
      C442          C  0.6228915  0.5490654  0.6798764    0.00000       Uiso       1.00
      C443          C  0.6325467  0.5660557  0.6922882    0.00000       Uiso       1.00
      C444          C  0.6388674  0.5879465  0.6899275    0.00000       Uiso       1.00
      C445          C  0.6370422  0.5932558  0.6747402    0.00000       Uiso       1.00
        O1          O  0.6082746  0.5650468  0.6413519    0.00000       Uiso       1.00
      H193          H  0.6440034  0.6007268  0.7009346    0.00000       Uiso       1.00
      C446          C  0.7229507  0.7277803  0.7104356    0.00000       Uiso       1.00
      C447          C  0.7105722  0.7105091  0.7006339    0.00000       Uiso       1.00
      C448          C  0.7082117  0.7148610  0.6854393    0.00000       Uiso       1.00
      C449          C  0.6950371  0.6973681  0.6764922    0.00000       Uiso       1.00
      C450          C  0.6827345  0.6752428  0.6836516    0.00000       Uiso       1.00
      C451          C  0.6850351  0.6712517  0.6992611    0.00000       Uiso       1.00
      C452          C  0.7001114  0.6882582  0.7065433    0.00000       Uiso       1.00
        O2          O  0.7334431  0.7503693  0.7070774    0.00000       Uiso       1.00
      H194          H  0.7167965  0.7318730  0.6804177    0.00000       Uiso       1.00
      H195          H  0.6944825  0.7013997  0.6641089    0.00000       Uiso       1.00
      H196          H  0.6740938  0.6550565  0.7067966    0.00000       Uiso       1.00
      C453          C  0.6644741  0.5666699  0.7550477    0.00000       Uiso       1.00
      C454          C  0.6742594  0.5888422  0.7501773    0.00000       Uiso       1.00
      C455          C  0.6894446  0.6063953  0.7569095    0.00000       Uiso       1.00
      C456          C  0.6983818  0.6285203  0.7526213    0.00000       Uiso       1.00
      C457          C  0.6912220  0.6336641  0.7428011    0.00000       Uiso       1.00
      C458          C  0.6756311  0.6157489  0.7364793    0.00000       Uiso       1.00
      C459          C  0.6683650  0.5933911  0.7383878    0.00000       Uiso       1.00
        O3          O  0.6679451  0.5596105  0.7670897    0.00000       Uiso       1.00
      H197          H  0.6944527  0.6028070  0.7653303    0.00000       Uiso       1.00
      H198          H  0.7107515  0.6414446  0.7572297    0.00000       Uiso       1.00
      H199          H  0.6680745  0.6191149  0.7312214    0.00000       Uiso       1.00
      C460          C  0.6494681  0.5493768  0.7485268    0.00000       Uiso       1.00
      C461          C  0.6440136  0.5531816  0.7359615    0.00000       Uiso       1.00
      C462          C  0.6287928  0.5356615  0.7292347    0.00000       Uiso       1.00
      C463          C  0.6243788  0.5398113  0.7158726    0.00000       Uiso       1.00
      C464          C  0.6361372  0.5613641  0.7076842    0.00000       Uiso       1.00
      C465          C  0.6516182  0.5787526  0.7143685    0.00000       Uiso       1.00
      C466          C  0.6544636  0.5753536  0.7298009    0.00000       Uiso       1.00
        O4          O  0.6415533  0.5287510  0.7551290    0.00000       Uiso       1.00
      H200          H  0.6624840  0.5947661  0.7065151    0.00000       Uiso       1.00
      C467          C  0.7252271  0.7235200  0.7254179    0.00000       Uiso       1.00
      C468          C  0.7159719  0.7017106  0.7308680    0.00000       Uiso       1.00
      C469          C  0.7183294  0.6973841  0.7460805    0.00000       Uiso       1.00
      C470          C  0.7096541  0.6754416  0.7506530    0.00000       Uiso       1.00
      C471          C  0.6997119  0.6573821  0.7390191    0.00000       Uiso       1.00
      C472          C  0.6978534  0.6621202  0.7234684    0.00000       Uiso       1.00
      C473          C  0.7042085  0.6838071  0.7204833    0.00000       Uiso       1.00
        O5          O  0.7378599  0.7427693  0.7334630    0.00000       Uiso       1.00
      H201          H  0.7267514  0.7111053  0.7545295    0.00000       Uiso       1.00
      H202          H  0.7109813  0.6728439  0.7632133    0.00000       Uiso       1.00
      H203          H  0.6926042  0.6490601  0.7126732    0.00000       Uiso       1.00
      C474          C  0.6269326  0.6019666  0.6496124    0.00000       Uiso       1.00
      C475          C  0.6394749  0.6199736  0.6588735    0.00000       Uiso       1.00
      C476          C  0.6461437  0.6418704  0.6565272    0.00000       Uiso       1.00
      C477          C  0.6594042  0.6597269  0.6652054    0.00000       Uiso       1.00
      C478          C  0.6675202  0.6562206  0.6751492    0.00000       Uiso       1.00
      C479          C  0.6609232  0.6340683  0.6770056    0.00000       Uiso       1.00
      C480          C  0.6456022  0.6157424  0.6706374    0.00000       Uiso       1.00
        O6          O  0.6202811  0.6034636  0.6370556    0.00000       Uiso       1.00
      H204          H  0.6408290  0.6449869  0.6481054    0.00000       Uiso       1.00
      H205          H  0.6633151  0.6762041  0.6638769    0.00000       Uiso       1.00
      H206          H  0.6687101  0.6310558  0.6822554    0.00000       Uiso       1.00
        B1          B  0.6083587  0.5798517  0.6320200    0.00000       Uiso       1.00
        B2          B  0.7429119  0.7597112  0.7217444    0.00000       Uiso       1.00
        B3          B  0.6533312  0.5354707  0.7669156    0.00000       Uiso       1.00
      H207          H  0.6103613  0.5400269  0.6580293    0.00000       Uiso       1.00
      H208          H  0.6182750  0.5320864  0.6804633    0.00000       Uiso       1.00
      H209          H  0.6201455  0.5187443  0.7344599    0.00000       Uiso       1.00
      H210          H  0.6118614  0.5259176  0.7118852    0.00000       Uiso       1.00
      C481          C  0.3794933  0.6517432  0.5805133    0.00000       Uiso       1.00
      C482          C  0.3745939  0.6641273  0.5756063    0.00000       Uiso       1.00
      C483          C  0.3812318  0.6665013  0.5537173    0.00000       Uiso       1.00
      C484          C  0.3770136  0.6797856  0.5491561    0.00000       Uiso       1.00
      C485          C  0.3673584  0.6921974  0.5661465    0.00000       Uiso       1.00
      C486          C  0.3610377  0.6898366  0.5880371    0.00000       Uiso       1.00
      C487          C  0.3628629  0.6746494  0.5933465    0.00000       Uiso       1.00
        O7          O  0.3916305  0.6412610  0.5651376    0.00000       Uiso       1.00
      H211          H  0.3559018  0.7008438  0.6008174    0.00000       Uiso       1.00
      C488          C  0.2769545  0.7103449  0.7278710    0.00000       Uiso       1.00
      C489          C  0.2893330  0.7005432  0.7105998    0.00000       Uiso       1.00
      C490          C  0.2916935  0.6853486  0.7149517    0.00000       Uiso       1.00
      C491          C  0.3048681  0.6764014  0.6974589    0.00000       Uiso       1.00
      C492          C  0.3171706  0.6835608  0.6753336    0.00000       Uiso       1.00
      C493          C  0.3148701  0.6991704  0.6713423    0.00000       Uiso       1.00
      C494          C  0.2997938  0.7064527  0.6883489    0.00000       Uiso       1.00
        O8          O  0.2664621  0.7069867  0.7504599    0.00000       Uiso       1.00
      H212          H  0.2831087  0.6803269  0.7319637    0.00000       Uiso       1.00
      H213          H  0.3054226  0.6640182  0.7014904    0.00000       Uiso       1.00
      H214          H  0.3258113  0.7067059  0.6551472    0.00000       Uiso       1.00
      C495          C  0.3354309  0.7549568  0.5667605    0.00000       Uiso       1.00
      C496          C  0.3256458  0.7500865  0.5889328    0.00000       Uiso       1.00
      C497          C  0.3104605  0.7568187  0.6064860    0.00000       Uiso       1.00
      C498          C  0.3015233  0.7525305  0.6286109    0.00000       Uiso       1.00
      C499          C  0.3086831  0.7427103  0.6337548    0.00000       Uiso       1.00
      C500          C  0.3242741  0.7363886  0.6158395    0.00000       Uiso       1.00
      C501          C  0.3315402  0.7382970  0.5934818    0.00000       Uiso       1.00
        O9          O  0.3319601  0.7669989  0.5597011    0.00000       Uiso       1.00
      H215          H  0.3054525  0.7652395  0.6028976    0.00000       Uiso       1.00
      H216          H  0.2891537  0.7571390  0.6415352    0.00000       Uiso       1.00
      H217          H  0.3318306  0.7311307  0.6192056    0.00000       Uiso       1.00
      C502          C  0.3504371  0.7484360  0.5494674    0.00000       Uiso       1.00
      C503          C  0.3558915  0.7358707  0.5532722    0.00000       Uiso       1.00
      C504          C  0.3711123  0.7291439  0.5357522    0.00000       Uiso       1.00
      C505          C  0.3755262  0.7157817  0.5399020    0.00000       Uiso       1.00
      C506          C  0.3637679  0.7075934  0.5614547    0.00000       Uiso       1.00
      C507          C  0.3482869  0.7142776  0.5788432    0.00000       Uiso       1.00
      C508          C  0.3454416  0.7297102  0.5754442    0.00000       Uiso       1.00
       O10          O  0.3583517  0.7550382  0.5288416    0.00000       Uiso       1.00
      H218          H  0.3374210  0.7064244  0.5948569    0.00000       Uiso       1.00
      C509          C  0.2746781  0.7253273  0.7236107    0.00000       Uiso       1.00
      C510          C  0.2839333  0.7307773  0.7018013    0.00000       Uiso       1.00
      C511          C  0.2815758  0.7459898  0.6974748    0.00000       Uiso       1.00
      C512          C  0.2902510  0.7505623  0.6755323    0.00000       Uiso       1.00
      C513          C  0.3001933  0.7389284  0.6574727    0.00000       Uiso       1.00
      C514          C  0.3020518  0.7233776  0.6622109    0.00000       Uiso       1.00
      C515          C  0.2956967  0.7203926  0.6838979    0.00000       Uiso       1.00
       O11          O  0.2620453  0.7333723  0.7428600    0.00000       Uiso       1.00
      H219          H  0.2731538  0.7544388  0.7111961    0.00000       Uiso       1.00
      H220          H  0.2889239  0.7631225  0.6729345    0.00000       Uiso       1.00
      H221          H  0.3073010  0.7125825  0.6491507    0.00000       Uiso       1.00
      C516          C  0.3729725  0.6495215  0.6020573    0.00000       Uiso       1.00
      C517          C  0.3604303  0.6587827  0.6200644    0.00000       Uiso       1.00
      C518          C  0.3537614  0.6564364  0.6419611    0.00000       Uiso       1.00
      C519          C  0.3405010  0.6651146  0.6598175    0.00000       Uiso       1.00
      C520          C  0.3323850  0.6750585  0.6563113    0.00000       Uiso       1.00
      C521          C  0.3389819  0.6769149  0.6341590    0.00000       Uiso       1.00
      C522          C  0.3543029  0.6705465  0.6158332    0.00000       Uiso       1.00
       O12          O  0.3796240  0.6369647  0.6035544    0.00000       Uiso       1.00
      H222          H  0.3590762  0.6480147  0.6450776    0.00000       Uiso       1.00
      H223          H  0.3365901  0.6637862  0.6762949    0.00000       Uiso       1.00
      H224          H  0.3311951  0.6821647  0.6311465    0.00000       Uiso       1.00
        B4          B  0.3915465  0.6319293  0.5799425    0.00000       Uiso       1.00
        B5          B  0.2569933  0.7216538  0.7598019    0.00000       Uiso       1.00
        B6          B  0.3465740  0.7668248  0.5355613    0.00000       Uiso       1.00
      H225          H  0.3895438  0.6579385  0.5401176    0.00000       Uiso       1.00
      H226          H  0.3816301  0.6803725  0.5321771    0.00000       Uiso       1.00
      H227          H  0.3797596  0.7343691  0.5188349    0.00000       Uiso       1.00
      H228          H  0.3880437  0.7117944  0.5260082    0.00000       Uiso       1.00
      C523          C  0.1471931  0.0805362  0.5958586    0.00000       Uiso       1.00
      C524          C  0.1644590  0.0756208  0.5819522    0.00000       Uiso       1.00
      C525          C  0.1601379  0.0537311  0.5753600    0.00000       Uiso       1.00
      C526          C  0.1776245  0.0490906  0.5623195    0.00000       Uiso       1.00
      C527          C  0.1996853  0.0660448  0.5567406    0.00000       Uiso       1.00
      C528          C  0.2036547  0.0879340  0.5637747    0.00000       Uiso       1.00
      C529          C  0.1866781  0.0932950  0.5748097    0.00000       Uiso       1.00
       O13          O  0.1246280  0.0651267  0.6047871    0.00000       Uiso       1.00
      H229          H  0.1431514  0.0403005  0.5802921    0.00000       Uiso       1.00
      H230          H  0.1736443  0.0321360  0.5568595    0.00000       Uiso       1.00
      H231          H  0.2197879  0.1007022  0.5618341    0.00000       Uiso       1.00
      C530          C  0.3081881  0.2277297  0.5375587    0.00000       Uiso       1.00
      C531          C  0.2860104  0.2104614  0.5458436    0.00000       Uiso       1.00
      C532          C  0.2684470  0.2147848  0.5568279    0.00000       Uiso       1.00
      C533          C  0.2463238  0.1972966  0.5659243    0.00000       Uiso       1.00
      C534          C  0.2412169  0.1752330  0.5654540    0.00000       Uiso       1.00
      C535          C  0.2591315  0.1712615  0.5545606    0.00000       Uiso       1.00
      C536          C  0.2814641  0.1882378  0.5432481    0.00000       Uiso       1.00
       O14          O  0.3153444  0.2502995  0.5393284    0.00000       Uiso       1.00
      H232          H  0.2720043  0.2317746  0.5582024    0.00000       Uiso       1.00
      H233          H  0.2333530  0.2012782  0.5734446    0.00000       Uiso       1.00
      H234          H  0.2557672  0.1551282  0.5559864    0.00000       Uiso       1.00
      C537          C  0.2943669  0.0666886  0.4930664    0.00000       Uiso       1.00
      C538          C  0.2992779  0.0888717  0.4964398    0.00000       Uiso       1.00
      C539          C  0.3211599  0.1064353  0.4855275    0.00000       Uiso       1.00
      C540          C  0.3257967  0.1285645  0.4899870    0.00000       Uiso       1.00
      C541          C  0.3088473  0.1336785  0.5064812    0.00000       Uiso       1.00
      C542          C  0.2869664  0.1157639  0.5174835    0.00000       Uiso       1.00
      C543          C  0.2816074  0.0934236  0.5115296    0.00000       Uiso       1.00
       O15          O  0.3097740  0.0595266  0.4794157    0.00000       Uiso       1.00
      H235          H  0.3345875  0.1028741  0.4734633    0.00000       Uiso       1.00
      H236          H  0.3427447  0.1415347  0.4805476    0.00000       Uiso       1.00
      H237          H  0.2742037  0.1191353  0.5316842    0.00000       Uiso       1.00
      C544          C  0.2729141  0.0494736  0.5041556    0.00000       Uiso       1.00
      C545          C  0.2549073  0.0532730  0.5182366    0.00000       Uiso       1.00
      C546          C  0.2330167  0.0357206  0.5291412    0.00000       Uiso       1.00
      C547          C  0.2151640  0.0398113  0.5422734    0.00000       Uiso       1.00
      C548          C  0.2186833  0.0613530  0.5436788    0.00000       Uiso       1.00
      C549          C  0.2408262  0.0787590  0.5323620    0.00000       Uiso       1.00
      C550          C  0.2591356  0.0753974  0.5210689    0.00000       Uiso       1.00
       O16          O  0.2715240  0.0288290  0.4990939    0.00000       Uiso       1.00
      H238          H  0.2298775  0.0188646  0.5274863    0.00000       Uiso       1.00
      H239          H  0.1986623  0.0259437  0.5510925    0.00000       Uiso       1.00
      H240          H  0.2438216  0.0947823  0.5311847    0.00000       Uiso       1.00
      C551          C  0.3254035  0.2234876  0.5271807    0.00000       Uiso       1.00
      C552          C  0.3216088  0.2016797  0.5232405    0.00000       Uiso       1.00
      C553          C  0.3391615  0.1973369  0.5122398    0.00000       Uiso       1.00
      C554          C  0.3350748  0.1753914  0.5075056    0.00000       Uiso       1.00
      C555          C  0.3135359  0.1573711  0.5124314    0.00000       Uiso       1.00
      C556          C  0.2961295  0.1621125  0.5232721    0.00000       Uiso       1.00
      C557          C  0.2994890  0.1837866  0.5303016    0.00000       Uiso       1.00
       O17          O  0.3460428  0.2427392  0.5207307    0.00000       Uiso       1.00
      H241          H  0.3560144  0.2110520  0.5074452    0.00000       Uiso       1.00
      H242          H  0.3489431  0.1727542  0.4998116    0.00000       Uiso       1.00
      H243          H  0.2801066  0.1490854  0.5250919    0.00000       Uiso       1.00
      C558          C  0.1514335  0.1019970  0.6027086    0.00000       Uiso       1.00
      C559          C  0.1732362  0.1200069  0.5949737    0.00000       Uiso       1.00
      C560          C  0.1775773  0.1419054  0.6015385    0.00000       Uiso       1.00
      C561          C  0.1995168  0.1597600  0.5927175    0.00000       Uiso       1.00
      C562          C  0.2175317  0.1562339  0.5760924    0.00000       Uiso       1.00
      C563          C  0.2127920  0.1340832  0.5695142    0.00000       Uiso       1.00
      C564          C  0.1911257  0.1157732  0.5799018    0.00000       Uiso       1.00
       O18          O  0.1321850  0.1033906  0.6169101    0.00000       Uiso       1.00
      H244          H  0.1638664  0.1450498  0.6136067    0.00000       Uiso       1.00
      H245          H  0.2021539  0.1762685  0.5989013    0.00000       Uiso       1.00
      H246          H  0.2258135  0.1310810  0.5553030    0.00000       Uiso       1.00
        B7          B  0.1152605  0.0798506  0.6181172    0.00000       Uiso       1.00
        B8          B  0.3394309  0.2596678  0.5285562    0.00000       Uiso       1.00
        B9          B  0.2950574  0.0354371  0.4833681    0.00000       Uiso       1.00
      C565          C  0.8527118  0.5957673  0.0806270    0.00000       Uiso       1.00
      C566          C  0.8354459  0.5818610  0.0757116    0.00000       Uiso       1.00
      C567          C  0.8397670  0.5752688  0.0538219    0.00000       Uiso       1.00
      C568          C  0.8222803  0.5622282  0.0491814    0.00000       Uiso       1.00
      C569          C  0.8002196  0.5566494  0.0661356    0.00000       Uiso       1.00
      C570          C  0.7962501  0.5636835  0.0880248    0.00000       Uiso       1.00
      C571          C  0.8132268  0.5747185  0.0933858    0.00000       Uiso       1.00
       O19          O  0.8752769  0.6046959  0.0652174    0.00000       Uiso       1.00
      H247          H  0.8567534  0.5802009  0.0403913    0.00000       Uiso       1.00
      H248          H  0.8262606  0.5567682  0.0322268    0.00000       Uiso       1.00
      H249          H  0.7801170  0.5617430  0.1007930    0.00000       Uiso       1.00
      C572          C  0.6917168  0.5374676  0.2278205    0.00000       Uiso       1.00
      C573          C  0.7138945  0.5457525  0.2105522    0.00000       Uiso       1.00
      C574          C  0.7314579  0.5567368  0.2148756    0.00000       Uiso       1.00
      C575          C  0.7535810  0.5658331  0.1973874    0.00000       Uiso       1.00
      C576          C  0.7586880  0.5653629  0.1753238    0.00000       Uiso       1.00
      C577          C  0.7407734  0.5544695  0.1713523    0.00000       Uiso       1.00
      C578          C  0.7184408  0.5431570  0.1883287    0.00000       Uiso       1.00
       O20          O  0.6845605  0.5392373  0.2503903    0.00000       Uiso       1.00
      H250          H  0.7279006  0.5581113  0.2318654    0.00000       Uiso       1.00
      H251          H  0.7665519  0.5733535  0.2013689    0.00000       Uiso       1.00
      H252          H  0.7441378  0.5558953  0.1552189    0.00000       Uiso       1.00
      C579          C  0.7055379  0.4929752  0.0667795    0.00000       Uiso       1.00
      C580          C  0.7006269  0.4963486  0.0889625    0.00000       Uiso       1.00
      C581          C  0.6787449  0.4854363  0.1065262    0.00000       Uiso       1.00
      C582          C  0.6741082  0.4898959  0.1286553    0.00000       Uiso       1.00
      C583          C  0.6910575  0.5063900  0.1337693    0.00000       Uiso       1.00
      C584          C  0.7129385  0.5173923  0.1158548    0.00000       Uiso       1.00
      C585          C  0.7182975  0.5114384  0.0935144    0.00000       Uiso       1.00
       O21          O  0.6901309  0.4793245  0.0596175    0.00000       Uiso       1.00
      H253          H  0.6653174  0.4733721  0.1029650    0.00000       Uiso       1.00
      H254          H  0.6571602  0.4804564  0.1416256    0.00000       Uiso       1.00
      H255          H  0.7257012  0.5315930  0.1192261    0.00000       Uiso       1.00
      C586          C  0.7269907  0.5040644  0.0495644    0.00000       Uiso       1.00
      C587          C  0.7449975  0.5181454  0.0533639    0.00000       Uiso       1.00
      C588          C  0.7668881  0.5290499  0.0358114    0.00000       Uiso       1.00
      C589          C  0.7847409  0.5421821  0.0399021    0.00000       Uiso       1.00
      C590          C  0.7812215  0.5435876  0.0614439    0.00000       Uiso       1.00
      C591          C  0.7590787  0.5322708  0.0788498    0.00000       Uiso       1.00
      C592          C  0.7407692  0.5209777  0.0754882    0.00000       Uiso       1.00
       O22          O  0.7283809  0.4990026  0.0289198    0.00000       Uiso       1.00
      H256          H  0.7700273  0.5273951  0.0189554    0.00000       Uiso       1.00
      H257          H  0.8012426  0.5510012  0.0260345    0.00000       Uiso       1.00
      H258          H  0.7560833  0.5310935  0.0948731    0.00000       Uiso       1.00
      C593          C  0.6745014  0.5270897  0.2235784    0.00000       Uiso       1.00
      C594          C  0.6782960  0.5231494  0.2017705    0.00000       Uiso       1.00
      C595          C  0.6607434  0.5121487  0.1974277    0.00000       Uiso       1.00
      C596          C  0.6648301  0.5074144  0.1754822    0.00000       Uiso       1.00
      C597          C  0.6863690  0.5123403  0.1574619    0.00000       Uiso       1.00
      C598          C  0.7037753  0.5231810  0.1622033    0.00000       Uiso       1.00
      C599          C  0.7004159  0.5302105  0.1838775    0.00000       Uiso       1.00
       O23          O  0.6538621  0.5206397  0.2428300    0.00000       Uiso       1.00
      H259          H  0.6438904  0.5073541  0.2111429    0.00000       Uiso       1.00
      H260          H  0.6509618  0.4997204  0.1728451    0.00000       Uiso       1.00
      H261          H  0.7197982  0.5250007  0.1491762    0.00000       Uiso       1.00
      C600          C  0.8484714  0.6026174  0.1020877    0.00000       Uiso       1.00
      C601          C  0.8266687  0.5948826  0.1200976    0.00000       Uiso       1.00
      C602          C  0.8223276  0.6014473  0.1419961    0.00000       Uiso       1.00
      C603          C  0.8003880  0.5926263  0.1598508    0.00000       Uiso       1.00
      C604          C  0.7823732  0.5760012  0.1563247    0.00000       Uiso       1.00
      C605          C  0.7871128  0.5694230  0.1341740    0.00000       Uiso       1.00
      C606          C  0.8087792  0.5798106  0.1158640    0.00000       Uiso       1.00
       O24          O  0.8677199  0.6168190  0.1034814    0.00000       Uiso       1.00
      H262          H  0.8360385  0.6135155  0.1451405    0.00000       Uiso       1.00
      H263          H  0.7977510  0.5988103  0.1763593    0.00000       Uiso       1.00
      H264          H  0.7740914  0.5552118  0.1311718    0.00000       Uiso       1.00
       B10          B  0.8846444  0.6180260  0.0799414    0.00000       Uiso       1.00
       B11          B  0.6604741  0.5284651  0.2597587    0.00000       Uiso       1.00
       B12          B  0.7048473  0.4832769  0.0355279    0.00000       Uiso       1.00
      C607          C  0.3529699  0.1830643  0.9953532    0.00000       Uiso       1.00
      C608          C  0.3356953  0.1608654  0.0002412    0.00000       Uiso       1.00
      C609          C  0.3399679  0.1432427  0.9935849    0.00000       Uiso       1.00
      C610          C  0.3224754  0.1211714  0.9977911    0.00000       Uiso       1.00
      C611          C  0.3004097  0.1160841  0.0074524    0.00000       Uiso       1.00
      C612          C  0.2964417  0.1340131  0.0137909    0.00000       Uiso       1.00
      C613          C  0.3134442  0.1563424  0.0119781    0.00000       Uiso       1.00
       O25          O  0.3755859  0.1903180  0.9832124    0.00000       Uiso       1.00
      H265          H  0.2803001  0.1306431  0.0189311    0.00000       Uiso       1.00
      C614          C  0.1918345  0.1692088  0.0979525    0.00000       Uiso       1.00
      C615          C  0.2140125  0.1741277  0.0855685    0.00000       Uiso       1.00
      C616          C  0.2315579  0.1960426  0.0832197    0.00000       Uiso       1.00
      C617          C  0.2536775  0.2006813  0.0700394    0.00000       Uiso       1.00
      C618          C  0.2588281  0.1837014  0.0577194    0.00000       Uiso       1.00
      C619          C  0.2409280  0.1617922  0.0600083    0.00000       Uiso       1.00
      C620          C  0.2185718  0.1564302  0.0750898    0.00000       Uiso       1.00
       O26          O  0.1846934  0.1846603  0.1084620    0.00000       Uiso       1.00
      H266          H  0.2279886  0.2094898  0.0918182    0.00000       Uiso       1.00
      H267          H  0.2666077  0.2176565  0.0694943    0.00000       Uiso       1.00
      H268          H  0.2443394  0.1490042  0.0490541    0.00000       Uiso       1.00
      C621          C  0.2057649  0.0219690  0.0393379    0.00000       Uiso       1.00
      C622          C  0.2008424  0.0392242  0.0491408    0.00000       Uiso       1.00
      C623          C  0.1789270  0.0348502  0.0643319    0.00000       Uiso       1.00
      C624          C  0.1742701  0.0523240  0.0732869    0.00000       Uiso       1.00
      C625          C  0.1912402  0.0744555  0.0661392    0.00000       Uiso       1.00
      C626          C  0.2131511  0.0784627  0.0505421    0.00000       Uiso       1.00
      C627          C  0.2185163  0.0614650  0.0432584    0.00000       Uiso       1.00
       O27          O  0.1902616  0.9993890  0.0427955    0.00000       Uiso       1.00
      H269          H  0.1655058  0.0178270  0.0693307    0.00000       Uiso       1.00
      H270          H  0.1572938  0.0482627  0.0856604    0.00000       Uiso       1.00
      H271          H  0.2259582  0.0946488  0.0429943    0.00000       Uiso       1.00
      C628          C  0.2272901  0.0262125  0.0243260    0.00000       Uiso       1.00
      C629          C  0.2453000  0.0480451  0.0188830    0.00000       Uiso       1.00
      C630          C  0.2672456  0.0524824  0.0036563    0.00000       Uiso       1.00
      C631          C  0.2850128  0.0744170  0.9992534    0.00000       Uiso       1.00
      C632          C  0.2814338  0.0923974  0.0110302    0.00000       Uiso       1.00
      C633          C  0.2592707  0.0876107  0.0265168    0.00000       Uiso       1.00
      C634          C  0.2410026  0.0659258  0.0293509    0.00000       Uiso       1.00
       O28          O  0.2286111  0.0068996  0.0163934    0.00000       Uiso       1.00
      H272          H  0.2562523  0.1006105  0.0373956    0.00000       Uiso       1.00
      C635          C  0.1745855  0.1476821  0.1002173    0.00000       Uiso       1.00
      C636          C  0.1783987  0.1296795  0.0909443    0.00000       Uiso       1.00
      C637          C  0.1608385  0.1077751  0.0932901    0.00000       Uiso       1.00
      C638          C  0.1649493  0.0899373  0.0845970    0.00000       Uiso       1.00
      C639          C  0.1865238  0.0934635  0.0746482    0.00000       Uiso       1.00
      C640          C  0.2039231  0.1156186  0.0728018    0.00000       Uiso       1.00
      C641          C  0.2005449  0.1339340  0.0791748    0.00000       Uiso       1.00
       O29          O  0.1539082  0.1462442  0.1128582    0.00000       Uiso       1.00
      H273          H  0.1439689  0.1046178  0.1017168    0.00000       Uiso       1.00
      H274          H  0.1510693  0.0734458  0.0859156    0.00000       Uiso       1.00
      H275          H  0.2199661  0.1186099  0.0675481    0.00000       Uiso       1.00
      C642          C  0.3486619  0.2003064  0.0018922    0.00000       Uiso       1.00
      C643          C  0.3268602  0.1965003  0.0144407    0.00000       Uiso       1.00
      C644          C  0.3225299  0.2140726  0.0211272    0.00000       Uiso       1.00
      C645          C  0.3005929  0.2099806  0.0343938    0.00000       Uiso       1.00
      C646          C  0.2825428  0.1884064  0.0424986    0.00000       Uiso       1.00
      C647          C  0.2872911  0.1709968  0.0358840    0.00000       Uiso       1.00
      C648          C  0.3089789  0.1743699  0.0205563    0.00000       Uiso       1.00
       O30          O  0.3678620  0.2210212  0.9952499    0.00000       Uiso       1.00
      H276          H  0.3362587  0.2309318  0.0158214    0.00000       Uiso       1.00
      H277          H  0.2980043  0.2238743  0.0383184    0.00000       Uiso       1.00
      H278          H  0.2742617  0.1549419  0.0436622    0.00000       Uiso       1.00
       B13          B  0.3848229  0.2143748  0.9833138    0.00000       Uiso       1.00
       B14          B  0.1605642  0.1698557  0.1179283    0.00000       Uiso       1.00
       B15          B  0.2050538  0.9900438  0.0281666    0.00000       Uiso       1.00
      H279          H  0.3568414  0.1465256  0.9852682    0.00000       Uiso       1.00
      H280          H  0.3265108  0.1082238  0.9931613    0.00000       Uiso       1.00
      H281          H  0.2706748  0.0389896  0.9949946    0.00000       Uiso       1.00
      H282          H  0.3015166  0.0770355  0.9867308    0.00000       Uiso       1.00
      C649          C  0.8821505  0.2126083  0.5219242    0.00000       Uiso       1.00
      C650          C  0.8787946  0.2043318  0.5391842    0.00000       Uiso       1.00
      C651          C  0.8897128  0.1933603  0.5348484    0.00000       Uiso       1.00
      C652          C  0.8852708  0.1842718  0.5523289    0.00000       Uiso       1.00
      C653          C  0.8687887  0.1847367  0.5743974    0.00000       Uiso       1.00
      C654          C  0.8577803  0.1956174  0.5783815    0.00000       Uiso       1.00
      C655          C  0.8637168  0.2069227  0.5614124    0.00000       Uiso       1.00
       O31          O  0.8957877  0.2108414  0.4993514    0.00000       Uiso       1.00
      H283          H  0.9017678  0.1919895  0.5178553    0.00000       Uiso       1.00
      H284          H  0.8947144  0.1767615  0.5483377    0.00000       Uiso       1.00
      H285          H  0.8435885  0.1941869  0.5945197    0.00000       Uiso       1.00
      C656          C  0.7794356  0.2570610  0.6830049    0.00000       Uiso       1.00
      C657          C  0.7933298  0.2536915  0.6608180    0.00000       Uiso       1.00
      C658          C  0.7999039  0.2645970  0.6432615    0.00000       Uiso       1.00
      C659          C  0.8129327  0.2601414  0.6211285    0.00000       Uiso       1.00
      C660          C  0.8185173  0.2436574  0.6160043    0.00000       Uiso       1.00
      C661          C  0.8115011  0.2326617  0.6339121    0.00000       Uiso       1.00
      C662          C  0.8004782  0.2386129  0.6562551    0.00000       Uiso       1.00
       O32          O  0.7705034  0.2707007  0.6901775    0.00000       Uiso       1.00
      H286          H  0.7949668  0.2766527  0.6468318    0.00000       Uiso       1.00
      H287          H  0.8183789  0.2695757  0.6081637    0.00000       Uiso       1.00
      H288          H  0.8134459  0.2184677  0.6305343    0.00000       Uiso       1.00
      C663          C  0.8377951  0.1543594  0.6690657    0.00000       Uiso       1.00
      C664          C  0.8295043  0.1682543  0.6739929    0.00000       Uiso       1.00
      C665          C  0.8185318  0.1748434  0.6958857    0.00000       Uiso       1.00
      C666          C  0.8094296  0.1878722  0.7005382    0.00000       Uiso       1.00
      C667          C  0.8098822  0.1934416  0.6835937    0.00000       Uiso       1.00
      C668          C  0.8207641  0.1864105  0.6617015    0.00000       Uiso       1.00
      C669          C  0.8320819  0.1753882  0.6563276    0.00000       Uiso       1.00
       O33          O  0.8360426  0.1454403  0.6844656    0.00000       Uiso       1.00
      H289          H  0.8171706  0.1699183  0.7093094    0.00000       Uiso       1.00
      H290          H  0.8019186  0.1933305  0.7174945    0.00000       Uiso       1.00
      H291          H  0.8193252  0.1883432  0.6489412    0.00000       Uiso       1.00
      C670          C  0.8481617  0.1475125  0.6476021    0.00000       Uiso       1.00
      C671          C  0.8520839  0.1552395  0.6296005    0.00000       Uiso       1.00
      C672          C  0.8630729  0.1486780  0.6076992    0.00000       Uiso       1.00
      C673          C  0.8677894  0.1574913  0.5898522    0.00000       Uiso       1.00
      C674          C  0.8628573  0.1741060  0.5933887    0.00000       Uiso       1.00
      C675          C  0.8520283  0.1806812  0.6155421    0.00000       Uiso       1.00
      C676          C  0.8450166  0.1703002  0.6338454    0.00000       Uiso       1.00
       O34          O  0.8546199  0.1333227  0.6461964    0.00000       Uiso       1.00
      H292          H  0.8678724  0.1366182  0.6045470    0.00000       Uiso       1.00
      H293          H  0.8754749  0.1513098  0.5733415    0.00000       Uiso       1.00
      H294          H  0.8502038  0.1948856  0.6185511    0.00000       Uiso       1.00
      C677          C  0.7726030  0.2459783  0.7002135    0.00000       Uiso       1.00
      C678          C  0.7803441  0.2319088  0.6964028    0.00000       Uiso       1.00
      C679          C  0.7737972  0.2210111  0.7139485    0.00000       Uiso       1.00
      C680          C  0.7826240  0.2078905  0.7098462    0.00000       Uiso       1.00
      C681          C  0.7992376  0.2064906  0.6882986    0.00000       Uiso       1.00
      C682          C  0.8057982  0.2178006  0.6708995    0.00000       Uiso       1.00
      C683          C  0.7954043  0.2290812  0.6742737    0.00000       Uiso       1.00
       O35          O  0.7584115  0.2510343  0.7208637    0.00000       Uiso       1.00
      H295          H  0.7617381  0.2226625  0.7308085    0.00000       Uiso       1.00
      H296          H  0.7764536  0.1990763  0.7237095    0.00000       Uiso       1.00
      H297          H  0.8200008  0.2189829  0.6548713    0.00000       Uiso       1.00
      C684          C  0.8710554  0.2229736  0.5261789    0.00000       Uiso       1.00
      C685          C  0.8569857  0.2269094  0.5479914    0.00000       Uiso       1.00
      C686          C  0.8460750  0.2378972  0.5523472    0.00000       Uiso       1.00
      C687          C  0.8329543  0.2426275  0.5742969    0.00000       Uiso       1.00
      C688          C  0.8315668  0.2377109  0.5923080    0.00000       Uiso       1.00
      C689          C  0.8428895  0.2268832  0.5875535    0.00000       Uiso       1.00
      C690          C  0.8541715  0.2198571  0.5658758    0.00000       Uiso       1.00
       O36          O  0.8760994  0.2294164  0.5069339    0.00000       Uiso       1.00
      H298          H  0.8477155  0.2426850  0.5386399    0.00000       Uiso       1.00
      H299          H  0.8241299  0.2503111  0.5769448    0.00000       Uiso       1.00
      H300          H  0.8440800  0.2250713  0.6005729    0.00000       Uiso       1.00
       B16          B  0.8918204  0.2216009  0.4899953    0.00000       Uiso       1.00
       B17          B  0.7571909  0.2667488  0.7142664    0.00000       Uiso       1.00
       B18          B  0.8468127  0.1321196  0.6697324    0.00000       Uiso       1.00
      C691          C  0.7947409  0.0402571  0.0224474    0.00000       Uiso       1.00
      C692          C  0.7996610  0.0500712  0.0397275    0.00000       Uiso       1.00
      C693          C  0.8215494  0.0653206  0.0354598    0.00000       Uiso       1.00
      C694          C  0.8261244  0.0741077  0.0529581    0.00000       Uiso       1.00
      C695          C  0.8091494  0.0667824  0.0750238    0.00000       Uiso       1.00
      C696          C  0.7872594  0.0512142  0.0789876    0.00000       Uiso       1.00
      C697          C  0.7819356  0.0440720  0.0619812    0.00000       Uiso       1.00
       O37          O  0.8101028  0.0434864  0.9998266    0.00000       Uiso       1.00
      H301          H  0.7744913  0.0435771  0.0951281    0.00000       Uiso       1.00
      C698          C  0.6474810  0.9955098  0.1836075    0.00000       Uiso       1.00
      C699          C  0.6647384  0.0003933  0.1614262    0.00000       Uiso       1.00
      C700          C  0.6603712  0.9936723  0.1438768    0.00000       Uiso       1.00
      C701          C  0.6778502  0.9979805  0.1217532    0.00000       Uiso       1.00
      C702          C  0.6999770  0.0078018  0.1166014    0.00000       Uiso       1.00
      C703          C  0.7039832  0.0141016  0.1345054    0.00000       Uiso       1.00
      C704          C  0.6869899  0.0121813  0.1568675    0.00000       Uiso       1.00
       O38          O  0.6248938  0.9834166  0.1907479    0.00000       Uiso       1.00
      H302          H  0.6433586  0.9852467  0.1474461    0.00000       Uiso       1.00
      H303          H  0.6738073  0.9933887  0.1088207    0.00000       Uiso       1.00
      H304          H  0.7201803  0.0193539  0.1310915    0.00000       Uiso       1.00
      C705          C  0.8086058  0.0981382  0.1696968    0.00000       Uiso       1.00
      C706          C  0.7864336  0.0857533  0.1746183    0.00000       Uiso       1.00
      C707          C  0.7688933  0.0833952  0.1965394    0.00000       Uiso       1.00
      C708          C  0.7467685  0.0702096  0.2011944    0.00000       Uiso       1.00
      C709          C  0.7416126  0.0578983  0.1842155    0.00000       Uiso       1.00
      C710          C  0.7595152  0.0602128  0.1622988    0.00000       Uiso       1.00
      C711          C  0.7818714  0.0753020  0.1569370    0.00000       Uiso       1.00
       O39          O  0.8156776  0.1086754  0.1852059    0.00000       Uiso       1.00
      H305          H  0.7724913  0.0919976  0.2099667    0.00000       Uiso       1.00
      H306          H  0.7338538  0.0696625  0.2181759    0.00000       Uiso       1.00
      H307          H  0.7561410  0.0492845  0.1494833    0.00000       Uiso       1.00
      C712          C  0.8258864  0.1004155  0.1481660    0.00000       Uiso       1.00
      C713          C  0.8220679  0.0911482  0.1301495    0.00000       Uiso       1.00
      C714          C  0.8395752  0.0934376  0.1081981    0.00000       Uiso       1.00
      C715          C  0.8354114  0.0848660  0.0904261    0.00000       Uiso       1.00
      C716          C  0.8138565  0.0750731  0.0940050    0.00000       Uiso       1.00
      C717          C  0.7964810  0.0731756  0.1161742    0.00000       Uiso       1.00
      C718          C  0.7998950  0.0794280  0.1344464    0.00000       Uiso       1.00
       O40          O  0.8465147  0.1131261  0.1468471    0.00000       Uiso       1.00
      H308          H  0.7804651  0.0680292  0.1191951    0.00000       Uiso       1.00
      C719          C  0.6517563  0.0020549  0.2008605    0.00000       Uiso       1.00
      C720          C  0.6735665  0.0146074  0.1970488    0.00000       Uiso       1.00
      C721          C  0.6779076  0.0212994  0.2146130    0.00000       Uiso       1.00
      C722          C  0.6998504  0.0345647  0.2105043    0.00000       Uiso       1.00
      C723          C  0.7178950  0.0426723  0.1889290    0.00000       Uiso       1.00
      C724          C  0.7131422  0.0360679  0.1715259    0.00000       Uiso       1.00
      C725          C  0.6914554  0.0207375  0.1749001    0.00000       Uiso       1.00
       O41          O  0.6325193  0.9954470  0.2215405    0.00000       Uiso       1.00
      H309          H  0.6641978  0.0160076  0.2314840    0.00000       Uiso       1.00
      H310          H  0.7024601  0.0384958  0.2243867    0.00000       Uiso       1.00
      H311          H  0.7261903  0.0438717  0.1554841    0.00000       Uiso       1.00
      C726          C  0.7731978  0.0252359  0.0267505    0.00000       Uiso       1.00
      C727          C  0.7552047  0.0197808  0.0485554    0.00000       Uiso       1.00
      C728          C  0.7333089  0.0045549  0.0528819    0.00000       Uiso       1.00
      C729          C  0.7154654  0.9999679  0.0748227    0.00000       Uiso       1.00
      C730          C  0.7189850  0.0115991  0.0928816    0.00000       Uiso       1.00
      C731          C  0.7411359  0.0271523  0.0881374    0.00000       Uiso       1.00
      C732          C  0.7594492  0.0301474  0.0664440    0.00000       Uiso       1.00
       O42          O  0.7716865  0.0170787  0.0075449    0.00000       Uiso       1.00
      H312          H  0.7301818  0.9961167  0.0391468    0.00000       Uiso       1.00
      H313          H  0.6989887  0.9874027  0.0774074    0.00000       Uiso       1.00
      H314          H  0.7441566  0.0379575  0.1011751    0.00000       Uiso       1.00
       B19          B  0.7952896  0.0287614  0.9905831    0.00000       Uiso       1.00
       B20          B  0.6155692  0.9835541  0.2148814    0.00000       Uiso       1.00
       B21          B  0.8398107  0.1181947  0.1704114    0.00000       Uiso       1.00
      H315          H  0.8351376  0.0706005  0.0185850    0.00000       Uiso       1.00
      H316          H  0.8431018  0.0864684  0.0489261    0.00000       Uiso       1.00
      H317          H  0.8564932  0.1017060  0.1047698    0.00000       Uiso       1.00
      H318          H  0.8492959  0.0862347  0.0739174    0.00000       Uiso       1.00
      C733          C  0.1177544  0.5218331  0.2126991    0.00000       Uiso       1.00
      C734          C  0.1211103  0.5390931  0.2044227    0.00000       Uiso       1.00
      C735          C  0.1101921  0.5347573  0.1934511    0.00000       Uiso       1.00
      C736          C  0.1146340  0.5522377  0.1843626    0.00000       Uiso       1.00
      C737          C  0.1311162  0.5743063  0.1848275    0.00000       Uiso       1.00
      C738          C  0.1421246  0.5782905  0.1957082    0.00000       Uiso       1.00
      C739          C  0.1361881  0.5613213  0.2070135    0.00000       Uiso       1.00
       O43          O  0.1041171  0.4992603  0.2109322    0.00000       Uiso       1.00
      H319          H  0.0981371  0.5177642  0.1920803    0.00000       Uiso       1.00
      H320          H  0.1051905  0.5482466  0.1768524    0.00000       Uiso       1.00
      H321          H  0.1563165  0.5944286  0.1942776    0.00000       Uiso       1.00
      C740          C  0.2204695  0.6829139  0.2571517    0.00000       Uiso       1.00
      C741          C  0.2065753  0.6607270  0.2537822    0.00000       Uiso       1.00
      C742          C  0.2000010  0.6431704  0.2646877    0.00000       Uiso       1.00
      C743          C  0.1869722  0.6210375  0.2602321    0.00000       Uiso       1.00
      C744          C  0.1813877  0.6159133  0.2437482    0.00000       Uiso       1.00
      C745          C  0.1884039  0.6338211  0.2327524    0.00000       Uiso       1.00
      C746          C  0.1994267  0.6561640  0.2387036    0.00000       Uiso       1.00
       O44          O  0.2294016  0.6900864  0.2707914    0.00000       Uiso       1.00
      H322          H  0.2049382  0.6467407  0.2767434    0.00000       Uiso       1.00
      H323          H  0.1815260  0.6080726  0.2696666    0.00000       Uiso       1.00
      H324          H  0.1864589  0.6304432  0.2185585    0.00000       Uiso       1.00
      C747          C  0.1621099  0.6689745  0.1544502    0.00000       Uiso       1.00
      C748          C  0.1704006  0.6739017  0.1683450    0.00000       Uiso       1.00
      C749          C  0.1813732  0.6957946  0.1749341    0.00000       Uiso       1.00
      C750          C  0.1904754  0.7004471  0.1879629    0.00000       Uiso       1.00
      C751          C  0.1900227  0.6835026  0.1935323    0.00000       Uiso       1.00
      C752          C  0.1791409  0.6616104  0.1865012    0.00000       Uiso       1.00
      C753          C  0.1678230  0.6562365  0.1754789    0.00000       Uiso       1.00
       O45          O  0.1638623  0.6843744  0.1455310    0.00000       Uiso       1.00
      H325          H  0.1827343  0.7092183  0.1700090    0.00000       Uiso       1.00
      H326          H  0.1979864  0.7174034  0.1934212    0.00000       Uiso       1.00
      H327          H  0.1805797  0.6488501  0.1884340    0.00000       Uiso       1.00
      C754          C  0.1517433  0.6475110  0.1476033    0.00000       Uiso       1.00
      C755          C  0.1478210  0.6295094  0.1553303    0.00000       Uiso       1.00
      C756          C  0.1368320  0.6076080  0.1487688    0.00000       Uiso       1.00
      C757          C  0.1321154  0.5897610  0.1575821    0.00000       Uiso       1.00
      C758          C  0.1370477  0.5932975  0.1741968    0.00000       Uiso       1.00
      C759          C  0.1478766  0.6154510  0.1807720    0.00000       Uiso       1.00
      C760          C  0.1548883  0.6337544  0.1703909    0.00000       Uiso       1.00
       O46          O  0.1452850  0.6461052  0.1334135    0.00000       Uiso       1.00
      H328          H  0.1320325  0.6044559  0.1367090    0.00000       Uiso       1.00
      H329          H  0.1244300  0.5732504  0.1514006    0.00000       Uiso       1.00
      H330          H  0.1497011  0.6184601  0.1949764    0.00000       Uiso       1.00
      C761          C  0.2273019  0.7001224  0.2460690    0.00000       Uiso       1.00
      C762          C  0.2195608  0.6963117  0.2319994    0.00000       Uiso       1.00
      C763          C  0.2261078  0.7138575  0.2211018    0.00000       Uiso       1.00
      C764          C  0.2172810  0.7097551  0.2079812    0.00000       Uiso       1.00
      C765          C  0.2006674  0.6882075  0.2065813    0.00000       Uiso       1.00
      C766          C  0.1941067  0.6708084  0.2178913    0.00000       Uiso       1.00
      C767          C  0.2045007  0.6741826  0.2291719    0.00000       Uiso       1.00
       O47          O  0.2414935  0.7207726  0.2511250    0.00000       Uiso       1.00
      H331          H  0.2381669  0.7307174  0.2227532    0.00000       Uiso       1.00
      H332          H  0.2234514  0.7236183  0.1991669    0.00000       Uiso       1.00
      H333          H  0.1799042  0.6547802  0.2190737    0.00000       Uiso       1.00
      C768          C  0.1288495  0.5260878  0.2230645    0.00000       Uiso       1.00
      C769          C  0.1429192  0.5479003  0.2270002    0.00000       Uiso       1.00
      C770          C  0.1538299  0.5522561  0.2379880    0.00000       Uiso       1.00
      C771          C  0.1669506  0.5742058  0.2427183    0.00000       Uiso       1.00
      C772          C  0.1683382  0.5922168  0.2378017    0.00000       Uiso       1.00
      C773          C  0.1570154  0.5874624  0.2269740    0.00000       Uiso       1.00
      C774          C  0.1457334  0.5657847  0.2199479    0.00000       Uiso       1.00
       O48          O  0.1238055  0.5068428  0.2295073    0.00000       Uiso       1.00
      H334          H  0.1521894  0.5385488  0.2427758    0.00000       Uiso       1.00
      H335          H  0.1757750  0.5768537  0.2504019    0.00000       Uiso       1.00
      H336          H  0.1558249  0.6004817  0.2251620    0.00000       Uiso       1.00
       B22          B  0.1080846  0.4899043  0.2216918    0.00000       Uiso       1.00
       B23          B  0.2427141  0.7141754  0.2668396    0.00000       Uiso       1.00
       B24          B  0.1530923  0.6696412  0.1322103    0.00000       Uiso       1.00
