data_13
_audit_creation_date              0000-00-00
_audit_creation_method            'LanYouShi'
_symmetry_space_group_name_H-M    'P1'
_cell_length_a                    76.0057983
_cell_length_b                    65.8551025
_cell_length_c                    65.8551025
_cell_angle_alpha                 70.5485992
_cell_angle_beta                  54.7554016
_cell_angle_gamma                 54.7554016
loop_
_atom_site_label
_atom_site_type_symbol
_atom_site_fract_x
_atom_site_fract_y
_atom_site_fract_z
_atom_site_U_iso_or_equiv
_atom_site_adp_type
_atom_site_occupancy
        C1          C  0.4999987  0.5000010  0.4999999    0.00000       Uiso       1.00
        C2          C  0.3031820  0.6516153  0.5796846    0.00000       Uiso       1.00
        C3          C  0.3120796  0.6258407  0.5848176    0.00000       Uiso       1.00
        C4          C  0.2948356  0.6173484  0.6014352    0.00000       Uiso       1.00
        C5          C  0.2690012  0.6344477  0.6130438    0.00000       Uiso       1.00
        C6          C  0.2601038  0.6602694  0.6081350    0.00000       Uiso       1.00
        C7          C  0.2773418  0.6687559  0.5913817    0.00000       Uiso       1.00
        H1          H  0.3160408  0.6586297  0.5666302    0.00000       Uiso       1.00
        H2          H  0.2709016  0.6885991  0.5871944    0.00000       Uiso       1.00
        H3          H  0.2560360  0.6274512  0.6258562    0.00000       Uiso       1.00
        C8          C  0.6030999  0.5848187  0.3741602    0.00000       Uiso       1.00
        C9          C  0.6171306  0.5796857  0.3483856    0.00000       Uiso       1.00
       C10          C  0.6037263  0.6014363  0.3826525    0.00000       Uiso       1.00
       C11          C  0.6179522  0.6130449  0.3655532    0.00000       Uiso       1.00
       C12          C  0.6317583  0.6081361  0.3397315    0.00000       Uiso       1.00
       C13          C  0.6312738  0.5913827  0.3312450    0.00000       Uiso       1.00
        H4          H  0.6173263  0.5666312  0.3413712    0.00000       Uiso       1.00
        H5          H  0.6419011  0.5871955  0.3114018    0.00000       Uiso       1.00
        H6          H  0.6181049  0.6258574  0.3725497    0.00000       Uiso       1.00
       C14          C  0.5227374  0.3741609  0.4151821    0.00000       Uiso       1.00
       C15          C  0.5344815  0.3483863  0.4203150    0.00000       Uiso       1.00
       C16          C  0.5136188  0.3826532  0.3985644    0.00000       Uiso       1.00
       C17          C  0.5164923  0.3655539  0.3869558    0.00000       Uiso       1.00
       C18          C  0.5285079  0.3397322  0.3918645    0.00000       Uiso       1.00
       C19          C  0.5374789  0.3312457  0.4086180    0.00000       Uiso       1.00
        H7          H  0.5413002  0.3413720  0.4333695    0.00000       Uiso       1.00
        H8          H  0.5466948  0.3114025  0.4128052    0.00000       Uiso       1.00
        H9          H  0.5093430  0.3725503  0.3741434    0.00000       Uiso       1.00
       C20          C  0.5620778  0.4151833  0.6258398    0.00000       Uiso       1.00
       C21          C  0.5452008  0.4203163  0.6516145    0.00000       Uiso       1.00
       C22          C  0.5878141  0.3985656  0.6173475    0.00000       Uiso       1.00
       C23          C  0.5965491  0.3869571  0.6344469    0.00000       Uiso       1.00
       C24          C  0.5796248  0.3918659  0.6602686    0.00000       Uiso       1.00
       C25          C  0.5539004  0.4086193  0.6687551    0.00000       Uiso       1.00
       H10          H  0.5253276  0.4333707  0.6586288    0.00000       Uiso       1.00
       H11          H  0.5404974  0.4128065  0.6885982    0.00000       Uiso       1.00
       H12          H  0.6165109  0.3741447  0.6274504    0.00000       Uiso       1.00
       C26          C  0.5889277  0.6070240  0.4105973    0.00000       Uiso       1.00
        F1          F  0.5918840  0.6207164  0.4135154    0.00000       Uiso       1.00
        F2          F  0.5682980  0.6154516  0.4179434    0.00000       Uiso       1.00
        F3          F  0.5956461  0.5890403  0.4210195    0.00000       Uiso       1.00
       C27          C  0.5004727  0.4105980  0.3929768    0.00000       Uiso       1.00
        F4          F  0.4945982  0.4135160  0.3792844    0.00000       Uiso       1.00
        F5          F  0.4833319  0.4210202  0.4109605    0.00000       Uiso       1.00
        F6          F  0.5137562  0.4179441  0.3845491    0.00000       Uiso       1.00
       C28          C  0.6065479  0.3929780  0.5894028    0.00000       Uiso       1.00
        F7          F  0.6261147  0.3792857  0.5864847    0.00000       Uiso       1.00
        F8          F  0.6016920  0.3845504  0.5820566    0.00000       Uiso       1.00
        F9          F  0.6057048  0.4109617  0.5789806    0.00000       Uiso       1.00
       C29          C  0.3040466  0.5894036  0.6070229    0.00000       Uiso       1.00
       F10          F  0.2873979  0.5864855  0.6207152    0.00000       Uiso       1.00
       F11          F  0.3153119  0.5789814  0.5890391    0.00000       Uiso       1.00
       F12          F  0.3162487  0.5820575  0.6154505    0.00000       Uiso       1.00
       C30          C  0.3814943  0.5934830  0.5364354    0.00000       Uiso       1.00
       C31          C  0.3915079  0.5721007  0.5491979    0.00000       Uiso       1.00
       C32          C  0.3751040  0.5687402  0.5738401    0.00000       Uiso       1.00
       C33          C  0.3495804  0.5861850  0.5853857    0.00000       Uiso       1.00
       C34          C  0.3395019  0.6074700  0.5725371    0.00000       Uiso       1.00
       C35          C  0.3558994  0.6108322  0.5478448    0.00000       Uiso       1.00
       H13          H  0.3935913  0.5969114  0.5176480    0.00000       Uiso       1.00
       H14          H  0.3377704  0.5830761  0.6045179    0.00000       Uiso       1.00
       C36          C  0.5592913  0.5491990  0.4279000    0.00000       Uiso       1.00
       C37          C  0.5820675  0.5364364  0.4065179    0.00000       Uiso       1.00
       C38          C  0.5510529  0.5738413  0.4312604    0.00000       Uiso       1.00
       C39          C  0.5650310  0.5853869  0.4138157    0.00000       Uiso       1.00
       C40          C  0.5879581  0.5725381  0.3925309    0.00000       Uiso       1.00
       C41          C  0.5962530  0.5478458  0.3891688    0.00000       Uiso       1.00
       H15          H  0.5887581  0.5176490  0.4030895    0.00000       Uiso       1.00
       H16          H  0.5577088  0.6045191  0.4169246    0.00000       Uiso       1.00
       C42          C  0.5128062  0.4279009  0.4508018    0.00000       Uiso       1.00
       C43          C  0.5114123  0.4065186  0.4635642    0.00000       Uiso       1.00
       C44          C  0.5176841  0.4312613  0.4261595    0.00000       Uiso       1.00
       C45          C  0.5211508  0.4138166  0.4146139    0.00000       Uiso       1.00
       C46          C  0.5195086  0.3925316  0.4274626    0.00000       Uiso       1.00
       C47          C  0.5145759  0.3891695  0.4521548    0.00000       Uiso       1.00
       H17          H  0.5081503  0.4030902  0.4823517    0.00000       Uiso       1.00
       H18          H  0.5253640  0.4169255  0.3954817    0.00000       Uiso       1.00
       C48          C  0.5363896  0.4508030  0.5720998    0.00000       Uiso       1.00
       C49          C  0.5250207  0.4635653  0.5934823    0.00000       Uiso       1.00
       C50          C  0.5561540  0.4261608  0.5687393    0.00000       Uiso       1.00
       C51          C  0.5642329  0.4146152  0.5861840    0.00000       Uiso       1.00
       C52          C  0.5530261  0.4274638  0.6074691    0.00000       Uiso       1.00
       C53          C  0.5332664  0.4521560  0.6108314    0.00000       Uiso       1.00
       H19          H  0.5094951  0.4823527  0.5969108    0.00000       Uiso       1.00
       H20          H  0.5791519  0.3954830  0.5830750    0.00000       Uiso       1.00
       C54          C  0.5265194  0.5885229  0.4545625    0.00000       Uiso       1.00
       F13          F  0.5231345  0.6079555  0.4538349    0.00000       Uiso       1.00
       F14          F  0.5104995  0.5900121  0.4552034    0.00000       Uiso       1.00
       F15          F  0.5277631  0.5784695  0.4718986    0.00000       Uiso       1.00
       C55          C  0.6213414  0.5326537  0.3665164    0.00000       Uiso       1.00
       F16          F  0.6303521  0.5446193  0.3544248    0.00000       Uiso       1.00
       F17          F  0.6341112  0.5155713  0.3731416    0.00000       Uiso       1.00
       F18          F  0.6181330  0.5265242  0.3552141    0.00000       Uiso       1.00
       C56          C  0.3849558  0.5454381  0.5885217    0.00000       Uiso       1.00
       F19          F  0.3689080  0.5461656  0.6079541    0.00000       Uiso       1.00
       F20          F  0.3937654  0.5281020  0.5784681    0.00000       Uiso       1.00
       F21          F  0.3994866  0.5447970  0.5900109    0.00000       Uiso       1.00
       C57          C  0.3460032  0.6334847  0.5326527    0.00000       Uiso       1.00
       F22          F  0.3250269  0.6455762  0.5446184    0.00000       Uiso       1.00
       F23          F  0.3553411  0.6447869  0.5265235    0.00000       Uiso       1.00
       F24          F  0.3503160  0.6268595  0.5155703    0.00000       Uiso       1.00
       C58          C  0.5189153  0.4545634  0.4114780    0.00000       Uiso       1.00
       F25          F  0.5230277  0.4538359  0.3920455    0.00000       Uiso       1.00
       F26          F  0.5003353  0.4718995  0.4215316    0.00000       Uiso       1.00
       F27          F  0.5342942  0.4552045  0.4099888    0.00000       Uiso       1.00
       C59          C  0.5121401  0.3665170  0.4673469    0.00000       Uiso       1.00
       F28          F  0.5152209  0.3544254  0.4553813    0.00000       Uiso       1.00
       F29          F  0.5266510  0.3552147  0.4734762    0.00000       Uiso       1.00
       F30          F  0.4927452  0.3731421  0.4844294    0.00000       Uiso       1.00
       C60          C  0.5205099  0.4673481  0.6334840    0.00000       Uiso       1.00
       F31          F  0.5293947  0.4553825  0.6455755    0.00000       Uiso       1.00
       F32          F  0.5228223  0.4844306  0.6268589    0.00000       Uiso       1.00
       F33          F  0.4998699  0.4734772  0.6447862    0.00000       Uiso       1.00
       C61          C  0.5696046  0.4114793  0.5454370    0.00000       Uiso       1.00
       F34          F  0.5849249  0.3920469  0.5461645    0.00000       Uiso       1.00
       F35          F  0.5557150  0.4099898  0.5447958    0.00000       Uiso       1.00
       F36          F  0.5781308  0.4215330  0.5281010    0.00000       Uiso       1.00
       C62          C  0.4586409  0.5311542  0.5000523    0.00000       Uiso       1.00
       C63          C  0.4713670  0.5187687  0.5136297    0.00000       Uiso       1.00
       C64          C  0.4567409  0.5233795  0.5395291    0.00000       Uiso       1.00
       C65          C  0.4311940  0.5406814  0.5508283    0.00000       Uiso       1.00
       C66          C  0.4189076  0.5535128  0.5369746    0.00000       Uiso       1.00
       C67          C  0.4330123  0.5482373  0.5114211    0.00000       Uiso       1.00
       H21          H  0.4688244  0.5276685  0.4803317    0.00000       Uiso       1.00
       H22          H  0.4646118  0.5137020  0.5515413    0.00000       Uiso       1.00
       H23          H  0.4211126  0.5441616  0.5705292    0.00000       Uiso       1.00
       C68          C  0.5150005  0.5136307  0.4812321    0.00000       Uiso       1.00
       C69          C  0.5413041  0.5000535  0.4688467    0.00000       Uiso       1.00
       C70          C  0.5037272  0.5395302  0.4766210    0.00000       Uiso       1.00
       C71          C  0.5179749  0.5508292  0.4593192    0.00000       Uiso       1.00
       C72          C  0.5441151  0.5369757  0.4464879    0.00000       Uiso       1.00
       C73          C  0.5555638  0.5114223  0.4517635    0.00000       Uiso       1.00
       H24          H  0.5508412  0.4803329  0.4723326    0.00000       Uiso       1.00
       H25          H  0.4838441  0.5515422  0.4862983    0.00000       Uiso       1.00
       H26          H  0.5083556  0.5705301  0.4558387    0.00000       Uiso       1.00
       C74          C  0.5037647  0.4812330  0.4863701    0.00000       Uiso       1.00
       C75          C  0.4898469  0.4688473  0.4999475    0.00000       Uiso       1.00
       C76          C  0.5196490  0.4766221  0.4604706    0.00000       Uiso       1.00
       C77          C  0.5227032  0.4593203  0.4491715    0.00000       Uiso       1.00
       C78          C  0.5093946  0.4464887  0.4630251    0.00000       Uiso       1.00
       C79          C  0.4926705  0.4517641  0.4885786    0.00000       Uiso       1.00
       H27          H  0.4768242  0.4723330  0.5196680    0.00000       Uiso       1.00
       H28          H  0.5298547  0.4862996  0.4484585    0.00000       Uiso       1.00
       H29          H  0.5358029  0.4558400  0.4294706    0.00000       Uiso       1.00
       C80          C  0.5098625  0.4863711  0.5187677    0.00000       Uiso       1.00
       C81          C  0.5102026  0.4999487  0.5311537    0.00000       Uiso       1.00
       C82          C  0.5198784  0.4604716  0.5233781    0.00000       Uiso       1.00
       C83          C  0.5281234  0.4491725  0.5406799    0.00000       Uiso       1.00
       C84          C  0.5275778  0.4630262  0.5535119    0.00000       Uiso       1.00
       C85          C  0.5187479  0.4885799  0.5482370    0.00000       Uiso       1.00
       H30          H  0.5035044  0.5196694  0.5276683    0.00000       Uiso       1.00
       H31          H  0.5216855  0.4484593  0.5137002    0.00000       Uiso       1.00
       H32          H  0.5347252  0.4294714  0.5441597    0.00000       Uiso       1.00
       C86          C  0.5841044  0.4954294  0.4392059    0.00000       Uiso       1.00
       F37          F  0.5927283  0.5074846  0.4259824    0.00000       Uiso       1.00
       F38          F  0.5898254  0.4872299  0.4540157    0.00000       Uiso       1.00
       F39          F  0.5908867  0.4797351  0.4283235    0.00000       Uiso       1.00
       C87          C  0.4766879  0.4392061  0.5045716    0.00000       Uiso       1.00
       F40          F  0.4812874  0.4259826  0.4925164    0.00000       Uiso       1.00
       F41          F  0.4807883  0.4283237  0.5202658    0.00000       Uiso       1.00
       F42          F  0.4561569  0.4540157  0.5127714    0.00000       Uiso       1.00
       C88          C  0.5187369  0.5045730  0.5607954    0.00000       Uiso       1.00
       F43          F  0.5261926  0.4925179  0.5740188    0.00000       Uiso       1.00
       F44          F  0.5310677  0.5127733  0.5459861    0.00000       Uiso       1.00
       F45          F  0.4989421  0.5202669  0.5716779    0.00000       Uiso       1.00
       C89          C  0.4204648  0.5607952  0.4954282    0.00000       Uiso       1.00
       F46          F  0.3997857  0.5740187  0.5074832    0.00000       Uiso       1.00
       F47          F  0.4293769  0.5716776  0.4797339    0.00000       Uiso       1.00
       F48          F  0.4229433  0.5459855  0.4872284    0.00000       Uiso       1.00
       C90          C  0.7502728  0.8750010  0.3748173    0.00000       Uiso       1.00
       C91          C  0.6330054  0.0717571  0.3404454    0.00000       Uiso       1.00
       C92          C  0.6470634  0.0628613  0.3521707    0.00000       Uiso       1.00
       C93          C  0.6464500  0.0800982  0.3612831    0.00000       Uiso       1.00
       C94          C  0.6322095  0.1059242  0.3584221    0.00000       Uiso       1.00
       C95          C  0.6183757  0.1148203  0.3464254    0.00000       Uiso       1.00
       C96          C  0.6188475  0.0975892  0.3374605    0.00000       Uiso       1.00
       H33          H  0.6327996  0.0589032  0.3336318    0.00000       Uiso       1.00
       H34          H  0.6081989  0.1040283  0.3282592    0.00000       Uiso       1.00
       H35          H  0.6320670  0.1188842  0.3655662    0.00000       Uiso       1.00
       C97          C  0.7274269  0.7719283  0.3128000    0.00000       Uiso       1.00
       C98          C  0.7156989  0.7578769  0.3296733    0.00000       Uiso       1.00
       C99          C  0.7365146  0.7713274  0.2870759    0.00000       Uiso       1.00
      C100          C  0.7336262  0.7571058  0.2783493    0.00000       Uiso       1.00
      C101          C  0.7216267  0.7432786  0.2952699    0.00000       Uiso       1.00
      C102          C  0.7126866  0.7437378  0.3209822    0.00000       Uiso       1.00
       H36          H  0.7089043  0.7576617  0.3495368    0.00000       Uiso       1.00
       H37          H  0.7034836  0.7330939  0.3343821    0.00000       Uiso       1.00
       H38          H  0.7407516  0.7569728  0.2583970    0.00000       Uiso       1.00
      C103          C  0.6884229  0.8520799  0.5626442    0.00000       Uiso       1.00
      C104          C  0.7053254  0.8403416  0.5715229    0.00000       Uiso       1.00
      C105          C  0.6626930  0.8611670  0.5798943    0.00000       Uiso       1.00
      C106          C  0.6539894  0.8582683  0.6057162    0.00000       Uiso       1.00
      C107          C  0.6709390  0.8462587  0.6145947    0.00000       Uiso       1.00
      C108          C  0.6966571  0.8373191  0.5973506    0.00000       Uiso       1.00
       H39          H  0.7251942  0.8335469  0.5586591    0.00000       Uiso       1.00
       H40          H  0.7100794  0.8281084  0.6037763    0.00000       Uiso       1.00
       H41          H  0.6340321  0.8653935  0.6186865    0.00000       Uiso       1.00
      C109          C  0.9381784  0.8131347  0.2716543    0.00000       Uiso       1.00
      C110          C  0.9470620  0.8300285  0.2576275    0.00000       Uiso       1.00
      C111          C  0.9554341  0.7874115  0.2710158    0.00000       Uiso       1.00
      C112          C  0.9812666  0.7787057  0.2567815    0.00000       Uiso       1.00
      C113          C  0.9901503  0.7956466  0.2429790    0.00000       Uiso       1.00
      C114          C  0.9729004  0.8213581  0.2434758    0.00000       Uiso       1.00
       H42          H  0.9341936  0.8498924  0.2574414    0.00000       Uiso       1.00
       H43          H  0.9793298  0.8347735  0.2328515    0.00000       Uiso       1.00
       H44          H  0.9942411  0.7587536  0.2566194    0.00000       Uiso       1.00
      C115          C  0.7496430  0.7861494  0.2683462    0.00000       Uiso       1.00
       F49          F  0.7554931  0.7832116  0.2487894    0.00000       Uiso       1.00
       F50          F  0.7363567  0.8067658  0.2732083    0.00000       Uiso       1.00
       F51          F  0.7667973  0.7794429  0.2691762    0.00000       Uiso       1.00
      C116          C  0.6439322  0.8743062  0.5707037    0.00000       Uiso       1.00
       F52          F  0.6243753  0.8801542  0.5873545    0.00000       Uiso       1.00
       F53          F  0.6447594  0.8914557  0.5594460    0.00000       Uiso       1.00
       F54          F  0.6487738  0.8610351  0.5585071    0.00000       Uiso       1.00
      C117          C  0.9462380  0.7686602  0.2858104    0.00000       Uiso       1.00
       F55          F  0.9628947  0.7491077  0.2828440    0.00000       Uiso       1.00
       F56          F  0.9340572  0.7734921  0.3064338    0.00000       Uiso       1.00
       F57          F  0.9349546  0.7694999  0.2791050    0.00000       Uiso       1.00
      C118          C  0.6612786  0.0708884  0.3744088    0.00000       Uiso       1.00
       F58          F  0.6583287  0.0875307  0.3802812    0.00000       Uiso       1.00
       F59          F  0.6545803  0.0596057  0.3915418    0.00000       Uiso       1.00
       F60          F  0.6819040  0.0587112  0.3611199    0.00000       Uiso       1.00
      C119          C  0.6681272  0.9934536  0.3634723    0.00000       Uiso       1.00
      C120          C  0.6909180  0.9834577  0.3620629    0.00000       Uiso       1.00
      C121          C  0.6991553  0.9998712  0.3571825    0.00000       Uiso       1.00
      C122          C  0.6851624  0.0253872  0.3537285    0.00000       Uiso       1.00
      C123          C  0.6622210  0.0354476  0.3553861    0.00000       Uiso       1.00
      C124          C  0.6539274  0.0190405  0.3603212    0.00000       Uiso       1.00
       H45          H  0.6614367  0.9813493  0.3667367    0.00000       Uiso       1.00
       H46          H  0.6924838  0.0372057  0.3495129    0.00000       Uiso       1.00
      C125          C  0.7374030  0.8157254  0.3384624    0.00000       Uiso       1.00
      C126          C  0.7388147  0.7929420  0.3498216    0.00000       Uiso       1.00
      C127          C  0.7324923  0.8239748  0.3187162    0.00000       Uiso       1.00
      C128          C  0.7290115  0.8100001  0.3106457    0.00000       Uiso       1.00
      C129          C  0.7306713  0.7870659  0.3218427    0.00000       Uiso       1.00
      C130          C  0.7356366  0.7787603  0.3415842    0.00000       Uiso       1.00
       H47          H  0.7421018  0.7862427  0.3653332    0.00000       Uiso       1.00
       H48          H  0.7247732  0.8173302  0.2957408    0.00000       Uiso       1.00
      C131          C  0.7140141  0.8620878  0.4832552    0.00000       Uiso       1.00
      C132          C  0.7254056  0.8634827  0.4932532    0.00000       Uiso       1.00
      C133          C  0.6942593  0.8571835  0.4996615    0.00000       Uiso       1.00
      C134          C  0.6862118  0.8536923  0.5251724    0.00000       Uiso       1.00
      C135          C  0.6974412  0.8553353  0.5352352    0.00000       Uiso       1.00
      C136          C  0.7171913  0.8602945  0.5188354    0.00000       Uiso       1.00
       H49          H  0.7409247  0.8667649  0.4811538    0.00000       Uiso       1.00
       H50          H  0.6712992  0.8494595  0.5369846    0.00000       Uiso       1.00
      C137          C  0.8587562  0.8387328  0.3154888    0.00000       Uiso       1.00
      C138          C  0.8687437  0.8501257  0.2927222    0.00000       Uiso       1.00
      C139          C  0.8751841  0.8189744  0.3237091    0.00000       Uiso       1.00
      C140          C  0.9007059  0.8109244  0.3097226    0.00000       Uiso       1.00
      C141          C  0.9107582  0.8221552  0.2868050    0.00000       Uiso       1.00
      C142          C  0.8943365  0.8419091  0.2785284    0.00000       Uiso       1.00
       H51          H  0.8566281  0.8656473  0.2860456    0.00000       Uiso       1.00
       H52          H  0.9125353  0.7960086  0.3170308    0.00000       Uiso       1.00
      C143          C  0.7312405  0.8485172  0.3052767    0.00000       Uiso       1.00
       F61          F  0.7271026  0.8519102  0.2899708    0.00000       Uiso       1.00
       F62          F  0.7158704  0.8645158  0.3191677    0.00000       Uiso       1.00
       F63          F  0.7498214  0.8472933  0.2967430    0.00000       Uiso       1.00
      C144          C  0.7380930  0.7536643  0.3543292    0.00000       Uiso       1.00
       F64          F  0.7349969  0.7446578  0.3454532    0.00000       Uiso       1.00
       F65          F  0.7574988  0.7409105  0.3520042    0.00000       Uiso       1.00
       F66          F  0.7236018  0.7568471  0.3749648    0.00000       Uiso       1.00
      C145          C  0.7237046  0.9900383  0.3559344    0.00000       Uiso       1.00
       F67          F  0.7270864  0.0060916  0.3518226    0.00000       Uiso       1.00
       F68          F  0.7224869  0.9812142  0.3745017    0.00000       Uiso       1.00
       F69          F  0.7397139  0.9755304  0.3405550    0.00000       Uiso       1.00
      C146          C  0.6288243  0.0289166  0.3627735    0.00000       Uiso       1.00
       F70          F  0.6198025  0.0498886  0.3597014    0.00000       Uiso       1.00
       F71          F  0.6320140  0.0195916  0.3482710    0.00000       Uiso       1.00
       F72          F  0.6160735  0.0245804  0.3821635    0.00000       Uiso       1.00
      C147          C  0.6807848  0.8559496  0.4898266    0.00000       Uiso       1.00
       F73          F  0.6654769  0.8518143  0.5058737    0.00000       Uiso       1.00
       F74          F  0.6722393  0.8745298  0.4810296    0.00000       Uiso       1.00
       F75          F  0.6946634  0.8405914  0.4752963    0.00000       Uiso       1.00
      C148          C  0.7299713  0.8627324  0.5287151    0.00000       Uiso       1.00
       F76          F  0.7211106  0.8596298  0.5496826    0.00000       Uiso       1.00
       F77          F  0.7506128  0.8482435  0.5193691    0.00000       Uiso       1.00
       F78          F  0.7276509  0.8821287  0.5244072    0.00000       Uiso       1.00
      C149          C  0.9042032  0.8546910  0.2534513    0.00000       Uiso       1.00
       F79          F  0.9251817  0.8458281  0.2444319    0.00000       Uiso       1.00
       F80          F  0.8998688  0.8523849  0.2406940    0.00000       Uiso       1.00
       F81          F  0.8948632  0.8753219  0.2566645    0.00000       Uiso       1.00
      C150          C  0.8653610  0.8054987  0.3482315    0.00000       Uiso       1.00
       F82          F  0.8814255  0.7901877  0.3516020    0.00000       Uiso       1.00
       F83          F  0.8508431  0.8193659  0.3642505    0.00000       Uiso       1.00
       F84          F  0.8565431  0.7969669  0.3469948    0.00000       Uiso       1.00
      C151          C  0.7089521  0.9163212  0.3849921    0.00000       Uiso       1.00
      C152          C  0.7352544  0.9036245  0.3710651    0.00000       Uiso       1.00
      C153          C  0.7465127  0.9182705  0.3551843    0.00000       Uiso       1.00
      C154          C  0.7322501  0.9438091  0.3521429    0.00000       Uiso       1.00
      C155          C  0.7061104  0.9560667  0.3654609    0.00000       Uiso       1.00
      C156          C  0.6946777  0.9419413  0.3821812    0.00000       Uiso       1.00
       H53          H  0.6994269  0.9061212  0.3980124    0.00000       Uiso       1.00
       H54          H  0.7663954  0.9104216  0.3449717    0.00000       Uiso       1.00
       H55          H  0.7418574  0.9539071  0.3390458    0.00000       Uiso       1.00
      C157          C  0.7464896  0.8600037  0.3649634    0.00000       Uiso       1.00
      C158          C  0.7604174  0.8337106  0.3646127    0.00000       Uiso       1.00
      C159          C  0.7305789  0.8712726  0.3549674    0.00000       Uiso       1.00
      C160          C  0.7275105  0.8570287  0.3467306    0.00000       Uiso       1.00
      C161          C  0.7408298  0.8308979  0.3472652    0.00000       Uiso       1.00
      C162          C  0.7575794  0.8194550  0.3560756    0.00000       Uiso       1.00
       H56          H  0.7734597  0.8241780  0.3712958    0.00000       Uiso       1.00
       H57          H  0.7203629  0.8911496  0.3531699    0.00000       Uiso       1.00
       H58          H  0.7143914  0.8666433  0.3401440    0.00000       Uiso       1.00
      C163          C  0.7404437  0.8712068  0.4034351    0.00000       Uiso       1.00
      C164          C  0.7401215  0.8851151  0.4161522    0.00000       Uiso       1.00
      C165          C  0.7304426  0.8553046  0.4180579    0.00000       Uiso       1.00
      C166          C  0.7222289  0.8522257  0.4435920    0.00000       Uiso       1.00
      C167          C  0.7227922  0.8655258  0.4558691    0.00000       Uiso       1.00
      C168          C  0.7316075  0.8822667  0.4417683    0.00000       Uiso       1.00
       H59          H  0.7468094  0.8981503  0.4059713    0.00000       Uiso       1.00
       H60          H  0.7286233  0.8451034  0.4101939    0.00000       Uiso       1.00
       H61          H  0.7156376  0.8391139  0.4536709    0.00000       Uiso       1.00
      C169          C  0.7789034  0.8651691  0.3598055    0.00000       Uiso       1.00
      C170          C  0.7916003  0.8648575  0.3335119    0.00000       Uiso       1.00
      C171          C  0.7935568  0.8551557  0.3710599    0.00000       Uiso       1.00
      C172          C  0.8191015  0.8469398  0.3568040    0.00000       Uiso       1.00
      C173          C  0.8313586  0.8475135  0.3306740    0.00000       Uiso       1.00
      C174          C  0.8172268  0.8563414  0.3192439    0.00000       Uiso       1.00
       H62          H  0.7813954  0.8715552  0.3239892    0.00000       Uiso       1.00
       H63          H  0.7857092  0.8533285  0.3909343    0.00000       Uiso       1.00
       H64          H  0.8292044  0.8403384  0.3664091    0.00000       Uiso       1.00
      C175          C  0.7735739  0.7909262  0.3560739    0.00000       Uiso       1.00
       F85          F  0.7689602  0.7823043  0.3486271    0.00000       Uiso       1.00
       F86          F  0.7941019  0.7852290  0.3437366    0.00000       Uiso       1.00
       F87          F  0.7694998  0.7841264  0.3758569    0.00000       Uiso       1.00
      C176          C  0.7316363  0.8982401  0.4543067    0.00000       Uiso       1.00
       F88          F  0.7242054  0.8936201  0.4749761    0.00000       Uiso       1.00
       F89          F  0.7514323  0.8941607  0.4453866    0.00000       Uiso       1.00
       F90          F  0.7192925  0.9187639  0.4518390    0.00000       Uiso       1.00
      C177          C  0.8297416  0.8563824  0.2907151    0.00000       Uiso       1.00
       F91          F  0.8504232  0.8489482  0.2820823    0.00000       Uiso       1.00
       F92          F  0.8272529  0.8440539  0.2849993    0.00000       Uiso       1.00
       F93          F  0.8208130  0.8761756  0.2839449    0.00000       Uiso       1.00
      C178          C  0.6661397  0.9544564  0.3981729    0.00000       Uiso       1.00
       F94          F  0.6575027  0.9751325  0.3935831    0.00000       Uiso       1.00
       F95          F  0.6593467  0.9455423  0.3940806    0.00000       Uiso       1.00
       F96          F  0.6604443  0.9519587  0.4186931    0.00000       Uiso       1.00
      C179          C  0.8747228  0.6251850  0.8750005    0.00000       Uiso       1.00
      C180          C  0.7229062  0.7423747  0.8300278    0.00000       Uiso       1.00
      C181          C  0.7486836  0.7283479  0.8131340    0.00000       Uiso       1.00
      C182          C  0.7571512  0.7289863  0.7874107    0.00000       Uiso       1.00
      C183          C  0.7400245  0.7432206  0.7787049    0.00000       Uiso       1.00
      C184          C  0.7141998  0.7570232  0.7956458    0.00000       Uiso       1.00
      C185          C  0.7057382  0.7565264  0.8213574    0.00000       Uiso       1.00
       H65          H  0.7159108  0.7425609  0.8498916    0.00000       Uiso       1.00
       H66          H  0.6858934  0.7671506  0.8347728    0.00000       Uiso       1.00
       H67          H  0.7470022  0.7433828  0.7587528    0.00000       Uiso       1.00
      C186          C  0.7900740  0.6478298  0.0628607    0.00000       Uiso       1.00
      C187          C  0.7952361  0.6595551  0.0717567    0.00000       Uiso       1.00
      C188          C  0.7734505  0.6387174  0.0800976    0.00000       Uiso       1.00
      C189          C  0.7618649  0.6415784  0.1059237    0.00000       Uiso       1.00
      C190          C  0.7668025  0.6535751  0.1148198    0.00000       Uiso       1.00
      C191          C  0.7835619  0.6625400  0.0975887    0.00000       Uiso       1.00
       H68          H  0.8082957  0.6663686  0.0589028    0.00000       Uiso       1.00
       H69          H  0.7877713  0.6717413  0.1040279    0.00000       Uiso       1.00
       H70          H  0.7490474  0.6344342  0.1188836    0.00000       Uiso       1.00
      C192          C  0.0006419  0.6872021  0.7719281    0.00000       Uiso       1.00
      C193          C  0.0264214  0.6703288  0.7578765    0.00000       Uiso       1.00
      C194          C  0.9921545  0.7129263  0.7713273    0.00000       Uiso       1.00
      C195          C  0.0092650  0.7216529  0.7571056    0.00000       Uiso       1.00
      C196          C  0.0350919  0.7047322  0.7432784    0.00000       Uiso       1.00
      C197          C  0.0435727  0.6790199  0.7437376    0.00000       Uiso       1.00
       H71          H  0.0334312  0.6504653  0.7576614    0.00000       Uiso       1.00
       H72          H  0.0634196  0.6656200  0.7330937    0.00000       Uiso       1.00
       H73          H  0.0022727  0.7416052  0.7569727    0.00000       Uiso       1.00
      C198          C  0.9594938  0.4373580  0.8520792    0.00000       Uiso       1.00
      C199          C  0.9543297  0.4284793  0.8403409    0.00000       Uiso       1.00
      C200          C  0.9761366  0.4201079  0.8611663    0.00000       Uiso       1.00
      C201          C  0.9877391  0.3942860  0.8582676    0.00000       Uiso       1.00
      C202          C  0.9827991  0.3854074  0.8462579    0.00000       Uiso       1.00
      C203          C  0.9660206  0.4026516  0.8373182    0.00000       Uiso       1.00
       H74          H  0.9412556  0.4413431  0.8335461    0.00000       Uiso       1.00
       H75          H  0.9618091  0.3962259  0.8281075    0.00000       Uiso       1.00
       H76          H  0.0005717  0.3813157  0.8653927    0.00000       Uiso       1.00
      C204          C  0.7678317  0.6255916  0.0708878    0.00000       Uiso       1.00
       F97          F  0.7541393  0.6197193  0.0875301    0.00000       Uiso       1.00
       F98          F  0.7593836  0.6388806  0.0587106    0.00000       Uiso       1.00
       F99          F  0.7858127  0.6084586  0.0596051    0.00000       Uiso       1.00
      C205          C  0.9642042  0.7316559  0.7861491    0.00000       Uiso       1.00
      F100          F  0.9612918  0.7512127  0.7832114    0.00000       Uiso       1.00
      F101          F  0.9537563  0.7308260  0.7794426    0.00000       Uiso       1.00
      F102          F  0.9568741  0.7267939  0.8067655    0.00000       Uiso       1.00
      C206          C  0.9817584  0.4292985  0.8743055    0.00000       Uiso       1.00
      F103          F  0.9954671  0.4126477  0.8801535    0.00000       Uiso       1.00
      F104          F  0.9901878  0.4414951  0.8610345    0.00000       Uiso       1.00
      F105          F  0.9637817  0.4405562  0.8914550    0.00000       Uiso       1.00
      C207          C  0.7850986  0.7141918  0.7686595    0.00000       Uiso       1.00
      F106          F  0.7879945  0.7171581  0.7491069    0.00000       Uiso       1.00
      F107          F  0.7955422  0.7208971  0.7694992    0.00000       Uiso       1.00
      F108          F  0.7924474  0.6935683  0.7734914    0.00000       Uiso       1.00
      C208          C  0.7811275  0.7072802  0.8501248    0.00000       Uiso       1.00
      C209          C  0.8025078  0.6845134  0.8387321    0.00000       Uiso       1.00
      C210          C  0.8058382  0.6762930  0.8189738    0.00000       Uiso       1.00
      C211          C  0.7883663  0.6902795  0.8109238    0.00000       Uiso       1.00
      C212          C  0.7670833  0.7131972  0.8221546    0.00000       Uiso       1.00
      C213          C  0.7637513  0.7214739  0.8419082    0.00000       Uiso       1.00
       H77          H  0.7777216  0.7139569  0.8656463    0.00000       Uiso       1.00
       H78          H  0.7914526  0.6829712  0.7960082    0.00000       Uiso       1.00
      C214          C  0.8256207  0.6379396  0.9834571    0.00000       Uiso       1.00
      C215          C  0.8384156  0.6365300  0.9934531    0.00000       Uiso       1.00
      C216          C  0.8009700  0.6428202  0.9998705    0.00000       Uiso       1.00
      C217          C  0.7894490  0.6462722  0.0253866    0.00000       Uiso       1.00
      C218          C  0.8023300  0.6446144  0.0354471    0.00000       Uiso       1.00
      C219          C  0.8270308  0.6396791  0.0190400    0.00000       Uiso       1.00
       H79          H  0.8572105  0.6332654  0.9813489    0.00000       Uiso       1.00
       H80          H  0.7703090  0.6504878  0.0372051    0.00000       Uiso       1.00
      C220          C  0.9468682  0.6615397  0.8157251    0.00000       Uiso       1.00
      C221          C  0.9682400  0.6501804  0.7929417    0.00000       Uiso       1.00
      C222          C  0.9435293  0.6812860  0.8239744    0.00000       Uiso       1.00
      C223          C  0.9609850  0.6893565  0.8099997    0.00000       Uiso       1.00
      C224          C  0.9822593  0.6781594  0.7870656    0.00000       Uiso       1.00
      C225          C  0.9855999  0.6584178  0.7787600    0.00000       Uiso       1.00
       H81          H  0.9716524  0.6346687  0.7862424    0.00000       Uiso       1.00
       H82          H  0.9578932  0.7042615  0.8173298    0.00000       Uiso       1.00
      C226          C  0.9238948  0.5167470  0.8620874    0.00000       Uiso       1.00
      C227          C  0.9111084  0.5067490  0.8634819    0.00000       Uiso       1.00
      C228          C  0.9485539  0.5003406  0.8571832    0.00000       Uiso       1.00
      C229          C  0.9600925  0.4748298  0.8536919    0.00000       Uiso       1.00
      C230          C  0.9472202  0.4647669  0.8553346    0.00000       Uiso       1.00
      C231          C  0.9225111  0.4811669  0.8602935    0.00000       Uiso       1.00
       H83          H  0.8923072  0.5188485  0.8667639    0.00000       Uiso       1.00
       H84          H  0.9792379  0.4630175  0.8494592    0.00000       Uiso       1.00
      C232          C  0.7862534  0.6440686  0.9900376    0.00000       Uiso       1.00
      F109          F  0.7668205  0.6481786  0.0060908    0.00000       Uiso       1.00
      F110          F  0.7847521  0.6594480  0.9755297    0.00000       Uiso       1.00
      F111          F  0.7962951  0.6255013  0.9812134    0.00000       Uiso       1.00
      C233          C  0.8422578  0.6372266  0.0289162    0.00000       Uiso       1.00
      F112          F  0.8303077  0.6402987  0.0498882    0.00000       Uiso       1.00
      F113          F  0.8593448  0.6178366  0.0245799    0.00000       Uiso       1.00
      F114          F  0.8483931  0.6517291  0.0195913    0.00000       Uiso       1.00
      C234          C  0.8291368  0.6517705  0.8054982    0.00000       Uiso       1.00
      F115          F  0.8283834  0.6483999  0.7901874    0.00000       Uiso       1.00
      F116          F  0.8464867  0.6530071  0.7969663    0.00000       Uiso       1.00
      F117          F  0.8297874  0.6357515  0.8193657    0.00000       Uiso       1.00
      C235          C  0.7411026  0.7465512  0.8546901    0.00000       Uiso       1.00
      F118          F  0.7289869  0.7555705  0.8458273    0.00000       Uiso       1.00
      F119          F  0.7298117  0.7433380  0.8753210    0.00000       Uiso       1.00
      F120          F  0.7477434  0.7593084  0.8523839    0.00000       Uiso       1.00
      C236          C  0.9202387  0.6947256  0.8485167    0.00000       Uiso       1.00
      F121          F  0.9209836  0.7100316  0.8519097    0.00000       Uiso       1.00
      F122          F  0.9028818  0.7032593  0.8472927    0.00000       Uiso       1.00
      F123          F  0.9196101  0.6808348  0.8645153    0.00000       Uiso       1.00
      C237          C  0.0082400  0.6456727  0.7536641    0.00000       Uiso       1.00
      F124          F  0.0203425  0.6545487  0.7446577    0.00000       Uiso       1.00
      F125          F  0.0195484  0.6250371  0.7568470    0.00000       Uiso       1.00
      F126          F  0.0015882  0.6479975  0.7409102    0.00000       Uiso       1.00
      C238          C  0.9072931  0.4712872  0.8627312    0.00000       Uiso       1.00
      F127          F  0.9192564  0.4503197  0.8596285    0.00000       Uiso       1.00
      F128          F  0.8902171  0.4755951  0.8821275    0.00000       Uiso       1.00
      F129          F  0.9011406  0.4806333  0.8482422    0.00000       Uiso       1.00
      C239          C  0.9632622  0.5101753  0.8559497    0.00000       Uiso       1.00
      F130          F  0.9827053  0.4941282  0.8518147    0.00000       Uiso       1.00
      F131          F  0.9647418  0.5247056  0.8405915    0.00000       Uiso       1.00
      F132          F  0.9532273  0.5189724  0.8745299    0.00000       Uiso       1.00
      C240          C  0.8435393  0.6664903  0.8648564    0.00000       Uiso       1.00
      C241          C  0.8559242  0.6401967  0.8651685    0.00000       Uiso       1.00
      C242          C  0.8512837  0.6289423  0.8551556    0.00000       Uiso       1.00
      C243          C  0.8339550  0.6431983  0.8469396    0.00000       Uiso       1.00
      C244          C  0.8211246  0.6693283  0.8475128    0.00000       Uiso       1.00
      C245          C  0.8264290  0.6807584  0.8563402    0.00000       Uiso       1.00
       H85          H  0.8470469  0.6760131  0.8715537    0.00000       Uiso       1.00
       H86          H  0.8609582  0.6090681  0.8533286    0.00000       Uiso       1.00
       H87          H  0.8304529  0.6335933  0.8403388    0.00000       Uiso       1.00
      C246          C  0.8611176  0.6289374  0.9036239    0.00000       Uiso       1.00
      C247          C  0.8747233  0.6150101  0.9163207    0.00000       Uiso       1.00
      C248          C  0.8352134  0.6448184  0.9182698    0.00000       Uiso       1.00
      C249          C  0.8239373  0.6478599  0.9438084    0.00000       Uiso       1.00
      C250          C  0.8378193  0.6345416  0.9560662    0.00000       Uiso       1.00
      C251          C  0.8633773  0.6178212  0.9419409    0.00000       Uiso       1.00
       H88          H  0.8944482  0.6019897  0.9061208    0.00000       Uiso       1.00
       H89          H  0.8231797  0.6550312  0.9104208    0.00000       Uiso       1.00
       H90          H  0.8042321  0.6609572  0.9539065    0.00000       Uiso       1.00
      C252          C  0.8935035  0.6350387  0.8600032    0.00000       Uiso       1.00
      C253          C  0.9058691  0.6353891  0.8337100    0.00000       Uiso       1.00
      C254          C  0.8981449  0.6450351  0.8712721    0.00000       Uiso       1.00
      C255          C  0.9154572  0.6532718  0.8570282    0.00000       Uiso       1.00
      C256          C  0.9282689  0.6527368  0.8308975    0.00000       Uiso       1.00
      C257          C  0.9229627  0.6439261  0.8194544    0.00000       Uiso       1.00
       H91          H  0.9023594  0.6287056  0.8241776    0.00000       Uiso       1.00
       H92          H  0.8884835  0.6468328  0.8911492    0.00000       Uiso       1.00
       H93          H  0.9189615  0.6598586  0.8666430    0.00000       Uiso       1.00
      C258          C  0.8883461  0.5965670  0.8712063    0.00000       Uiso       1.00
      C259          C  0.8747598  0.5838500  0.8851144    0.00000       Uiso       1.00
      C260          C  0.9142495  0.5819442  0.8553047    0.00000       Uiso       1.00
      C261          C  0.9255421  0.5564101  0.8522259    0.00000       Uiso       1.00
      C262          C  0.9116786  0.5441330  0.8655254    0.00000       Uiso       1.00
      C263          C  0.8861223  0.5582340  0.8822659    0.00000       Uiso       1.00
       H94          H  0.8550367  0.5940311  0.8981492    0.00000       Uiso       1.00
       H95          H  0.9262702  0.5898080  0.8451039    0.00000       Uiso       1.00
       H96          H  0.9452454  0.5463310  0.8391144    0.00000       Uiso       1.00
      C264          C  0.8794002  0.6018292  0.9544560    0.00000       Uiso       1.00
      F133          F  0.8673610  0.6064191  0.9751322    0.00000       Uiso       1.00
      F134          F  0.8875932  0.5813091  0.9519584    0.00000       Uiso       1.00
      F135          F  0.8951074  0.6059213  0.9455420    0.00000       Uiso       1.00
      C265          C  0.9354972  0.6439273  0.7909256    0.00000       Uiso       1.00
      F136          F  0.9487329  0.6513742  0.7823038    0.00000       Uiso       1.00
      F137          F  0.9463711  0.6241443  0.7841262    0.00000       Uiso       1.00
      F138          F  0.9206666  0.6562645  0.7852283    0.00000       Uiso       1.00
      C266          C  0.8701200  0.5456958  0.8982388    0.00000       Uiso       1.00
      F139          F  0.8821709  0.5250264  0.8936188    0.00000       Uiso       1.00
      F140          F  0.8619395  0.5481635  0.9187627    0.00000       Uiso       1.00
      F141          F  0.8544037  0.5546159  0.8941590    0.00000       Uiso       1.00
      C267          C  0.8138737  0.7092871  0.8563805    0.00000       Uiso       1.00
      F142          F  0.8006263  0.7179199  0.8489462    0.00000       Uiso       1.00
      F143          F  0.8030093  0.7160578  0.8761734    0.00000       Uiso       1.00
      F144          F  0.8286913  0.7150024  0.8440517    0.00000       Uiso       1.00
      C268          C  0.0000901  0.1250016  0.6251835    0.00000       Uiso       1.00
      C269          C  0.0452060  0.9282454  0.6595552    0.00000       Uiso       1.00
      C270          C  0.0620933  0.9371413  0.6478300    0.00000       Uiso       1.00
      C271          C  0.0878292  0.9199044  0.6387177    0.00000       Uiso       1.00
      C272          C  0.0965538  0.8940783  0.6415786    0.00000       Uiso       1.00
      C273          C  0.0796195  0.8851822  0.6535752    0.00000       Uiso       1.00
      C274          C  0.0538952  0.9024133  0.6625401    0.00000       Uiso       1.00
       H97          H  0.0253327  0.9410992  0.6663688    0.00000       Uiso       1.00
       H98          H  0.0404845  0.8959742  0.6717414    0.00000       Uiso       1.00
       H99          H  0.1165155  0.8811184  0.6344345    0.00000       Uiso       1.00
      C275          C  0.8121539  0.2280740  0.6872005    0.00000       Uiso       1.00
      C276          C  0.8032477  0.2421255  0.6703271    0.00000       Uiso       1.00
      C277          C  0.7949165  0.2286749  0.7129245    0.00000       Uiso       1.00
      C278          C  0.7690800  0.2428965  0.7216512    0.00000       Uiso       1.00
      C279          C  0.7601738  0.2567237  0.7047305    0.00000       Uiso       1.00
      C280          C  0.7774053  0.2562645  0.6790183    0.00000       Uiso       1.00
      H100          H  0.8161014  0.2423407  0.6504636    0.00000       Uiso       1.00
      H101          H  0.7709584  0.2669084  0.6656183    0.00000       Uiso       1.00
      H102          H  0.7561200  0.2430294  0.7416034    0.00000       Uiso       1.00
      C281          C  0.1031461  0.1479228  0.4373566    0.00000       Uiso       1.00
      C282          C  0.1171891  0.1596610  0.4284779    0.00000       Uiso       1.00
      C283          C  0.1037536  0.1388356  0.4201064    0.00000       Uiso       1.00
      C284          C  0.1179731  0.1417343  0.3942845    0.00000       Uiso       1.00
      C285          C  0.1317917  0.1537440  0.3854060    0.00000       Uiso       1.00
      C286          C  0.1313259  0.1626836  0.4026502    0.00000       Uiso       1.00
      H103          H  0.1173993  0.1664558  0.4413417    0.00000       Uiso       1.00
      H104          H  0.1419631  0.1718943  0.3962246    0.00000       Uiso       1.00
      H105          H  0.1181113  0.1346091  0.3813142    0.00000       Uiso       1.00
      C287          C  0.0229661  0.1868681  0.7283466    0.00000       Uiso       1.00
      C288          C  0.0347166  0.1699743  0.7423735    0.00000       Uiso       1.00
      C289          C  0.0138601  0.2125913  0.7289851    0.00000       Uiso       1.00
      C290          C  0.0167524  0.2212971  0.7432195    0.00000       Uiso       1.00
      C291          C  0.0287745  0.2043563  0.7570220    0.00000       Uiso       1.00
      C292          C  0.0377330  0.1786448  0.7565252    0.00000       Uiso       1.00
      H106          H  0.0415260  0.1501105  0.7425596    0.00000       Uiso       1.00
      H107          H  0.0469534  0.1652293  0.7671495    0.00000       Uiso       1.00
      H108          H  0.0096127  0.2412492  0.7433816    0.00000       Uiso       1.00
      C293          C  0.8041371  0.2138530  0.7316543    0.00000       Uiso       1.00
      F145          F  0.7874926  0.2167908  0.7512110    0.00000       Uiso       1.00
      F146          F  0.8163295  0.1932366  0.7267922    0.00000       Uiso       1.00
      F147          F  0.8154150  0.2205595  0.7308244    0.00000       Uiso       1.00
      C294          C  0.0889413  0.1256964  0.4292970    0.00000       Uiso       1.00
      F148          F  0.0918834  0.1198483  0.4126461    0.00000       Uiso       1.00
      F149          F  0.0956603  0.1085469  0.4405547    0.00000       Uiso       1.00
      F150          F  0.0683152  0.1389675  0.4414936    0.00000       Uiso       1.00
      C295          C  0.0007072  0.2313426  0.7141906    0.00000       Uiso       1.00
      F151          F  0.9948444  0.2508951  0.7171570    0.00000       Uiso       1.00
      F152          F  0.0139819  0.2265107  0.6935671    0.00000       Uiso       1.00
      F153          F  0.9835578  0.2305029  0.7208959    0.00000       Uiso       1.00
      C296          C  0.1065737  0.9291142  0.6255919    0.00000       Uiso       1.00
      F154          F  0.1261384  0.9124720  0.6197196    0.00000       Uiso       1.00
      F155          F  0.1057257  0.9403970  0.6084589    0.00000       Uiso       1.00
      F156          F  0.1017330  0.9412915  0.6388808    0.00000       Uiso       1.00
      C297          C  0.0250523  0.0065489  0.6365284    0.00000       Uiso       1.00
      C298          C  0.0364377  0.0165448  0.6379378    0.00000       Uiso       1.00
      C299          C  0.0562080  0.0001314  0.6428183    0.00000       Uiso       1.00
      C300          C  0.0642760  0.9746154  0.6462722    0.00000       Uiso       1.00
      C301          C  0.0530527  0.9645549  0.6446146    0.00000       Uiso       1.00
      C302          C  0.0332870  0.9809620  0.6396795    0.00000       Uiso       1.00
      H109          H  0.0095220  0.0186532  0.6332639    0.00000       Uiso       1.00
      H110          H  0.0792004  0.9627969  0.6504878    0.00000       Uiso       1.00
      C303          C  0.8915895  0.1842770  0.6615382    0.00000       Uiso       1.00
      C304          C  0.8815768  0.2070604  0.6501790    0.00000       Uiso       1.00
      C305          C  0.8751820  0.1760276  0.6812844    0.00000       Uiso       1.00
      C306          C  0.8496559  0.1900023  0.6893548    0.00000       Uiso       1.00
      C307          C  0.8395786  0.2129365  0.6781577    0.00000       Uiso       1.00
      C308          C  0.8559796  0.2212421  0.6584163    0.00000       Uiso       1.00
      H111          H  0.8936763  0.2137598  0.6346673    0.00000       Uiso       1.00
      H112          H  0.8378427  0.1826723  0.7042598    0.00000       Uiso       1.00
      C309          C  0.0593562  0.1379148  0.5167455    0.00000       Uiso       1.00
      C310          C  0.0821407  0.1365199  0.5067475    0.00000       Uiso       1.00
      C311          C  0.0511033  0.1428192  0.5003393    0.00000       Uiso       1.00
      C312          C  0.0650755  0.1463103  0.4748284    0.00000       Uiso       1.00
      C313          C  0.0880109  0.1446673  0.4647655    0.00000       Uiso       1.00
      C314          C  0.0963201  0.1397082  0.4811654    0.00000       Uiso       1.00
      H113          H  0.0888424  0.1332377  0.5188470    0.00000       Uiso       1.00
      H114          H  0.0577424  0.1505431  0.4630161    0.00000       Uiso       1.00
      C315          C  0.0129766  0.1612699  0.6845121    0.00000       Uiso       1.00
      C316          C  0.0115904  0.1498771  0.7072787    0.00000       Uiso       1.00
      C317          C  0.0178664  0.1810283  0.6762918    0.00000       Uiso       1.00
      C318          C  0.0213517  0.1890784  0.6902783    0.00000       Uiso       1.00
      C319          C  0.0197172  0.1778475  0.7131959    0.00000       Uiso       1.00
      C320          C  0.0147727  0.1580937  0.7214725    0.00000       Uiso       1.00
      H115          H  0.0083197  0.1343555  0.7139553    0.00000       Uiso       1.00
      H116          H  0.0255735  0.2039941  0.6829701    0.00000       Uiso       1.00
      C321          C  0.8850329  0.1514853  0.6947238    0.00000       Uiso       1.00
      F157          F  0.8689823  0.1480922  0.7100297    0.00000       Uiso       1.00
      F158          F  0.8995525  0.1354867  0.6808329    0.00000       Uiso       1.00
      F159          F  0.8938563  0.1527092  0.7032576    0.00000       Uiso       1.00
      C322          C  0.8460853  0.2463381  0.6456713    0.00000       Uiso       1.00
      F160          F  0.8251066  0.2553445  0.6545473    0.00000       Uiso       1.00
      F161          F  0.8504120  0.2590919  0.6479964    0.00000       Uiso       1.00
      F162          F  0.8554124  0.2431553  0.6250356    0.00000       Uiso       1.00
      C323          C  0.0696764  0.0099643  0.6440664    0.00000       Uiso       1.00
      F163          F  0.0849984  0.9939111  0.6481782    0.00000       Uiso       1.00
      F164          F  0.0782019  0.0187885  0.6254991    0.00000       Uiso       1.00
      F165          F  0.0557983  0.0244722  0.6594458    0.00000       Uiso       1.00
      C324          C  0.0205124  0.9710859  0.6372271    0.00000       Uiso       1.00
      F166          F  0.0293905  0.9501140  0.6402992    0.00000       Uiso       1.00
      F167          F  0.9998741  0.9804108  0.6517296    0.00000       Uiso       1.00
      F168          F  0.0228155  0.9754221  0.6178371    0.00000       Uiso       1.00
      C325          C  0.0265602  0.1440529  0.5101740    0.00000       Uiso       1.00
      F169          F  0.0231641  0.1481881  0.4941269    0.00000       Uiso       1.00
      F170          F  0.0277978  0.1254728  0.5189711    0.00000       Uiso       1.00
      F171          F  0.0105503  0.1594111  0.5247043    0.00000       Uiso       1.00
      C326          C  0.1214178  0.1372703  0.4712858    0.00000       Uiso       1.00
      F172          F  0.1304220  0.1403730  0.4503182    0.00000       Uiso       1.00
      F173          F  0.1182244  0.1517593  0.4806318    0.00000       Uiso       1.00
      F174          F  0.1341858  0.1178740  0.4755937    0.00000       Uiso       1.00
      C327          C  0.0123443  0.1453118  0.7465496    0.00000       Uiso       1.00
      F175          F  0.0154405  0.1541746  0.7555691    0.00000       Uiso       1.00
      F176          F  0.9929458  0.1476178  0.7593069    0.00000       Uiso       1.00
      F177          F  0.0268484  0.1246809  0.7433364    0.00000       Uiso       1.00
      C328          C  0.0190901  0.1945040  0.6517693    0.00000       Uiso       1.00
      F178          F  0.0232140  0.2098151  0.6483989    0.00000       Uiso       1.00
      F179          F  0.0344584  0.1806368  0.6357504    0.00000       Uiso       1.00
      F180          F  0.0005036  0.2030358  0.6530060    0.00000       Uiso       1.00
      C329          C  0.0102644  0.0836814  0.6150086    0.00000       Uiso       1.00
      C330          C  0.0099430  0.0963781  0.6289356    0.00000       Uiso       1.00
      C331          C  0.0199666  0.0817321  0.6448163    0.00000       Uiso       1.00
      C332          C  0.0282011  0.0561935  0.6478578    0.00000       Uiso       1.00
      C333          C  0.0276370  0.0439359  0.6345398    0.00000       Uiso       1.00
      C334          C  0.0187993  0.0580612  0.6178195    0.00000       Uiso       1.00
      H117          H  0.0035597  0.0938813  0.6019883    0.00000       Uiso       1.00
      H118          H  0.0217877  0.0895811  0.6550290    0.00000       Uiso       1.00
      H119          H  0.0348094  0.0460954  0.6609550    0.00000       Uiso       1.00
      C335          C  0.9714552  0.1399989  0.6350372    0.00000       Uiso       1.00
      C336          C  0.9587391  0.1662920  0.6353880    0.00000       Uiso       1.00
      C337          C  0.9568174  0.1287299  0.6450332    0.00000       Uiso       1.00
      C338          C  0.9312684  0.1429738  0.6532699    0.00000       Uiso       1.00
      C339          C  0.9189916  0.1691046  0.6527354    0.00000       Uiso       1.00
      C340          C  0.9331086  0.1805476  0.6439250    0.00000       Uiso       1.00
      H120          H  0.9689321  0.1758245  0.6287048    0.00000       Uiso       1.00
      H121          H  0.9646810  0.1088529  0.6468307    0.00000       Uiso       1.00
      H122          H  0.9211774  0.1333591  0.6598566    0.00000       Uiso       1.00
      C341          C  0.0150847  0.1287958  0.5965655    0.00000       Uiso       1.00
      C342          C  0.0413880  0.1148875  0.5838485    0.00000       Uiso       1.00
      C343          C  0.0038041  0.1446980  0.5819429    0.00000       Uiso       1.00
      C344          C  0.0180457  0.1477768  0.5564087    0.00000       Uiso       1.00
      C345          C  0.0441863  0.1344768  0.5441316    0.00000       Uiso       1.00
      C346          C  0.0556415  0.1177359  0.5582325    0.00000       Uiso       1.00
      H123          H  0.0509300  0.1018524  0.5940294    0.00000       Uiso       1.00
      H124          H  0.9839191  0.1548992  0.5898067    0.00000       Uiso       1.00
      H125          H  0.0084215  0.1608887  0.5463297    0.00000       Uiso       1.00
      C347          C  0.0038771  0.1348335  0.6401952    0.00000       Uiso       1.00
      C348          C  0.9899682  0.1351451  0.6664889    0.00000       Uiso       1.00
      C349          C  0.0197714  0.1448469  0.6289409    0.00000       Uiso       1.00
      C350          C  0.0228442  0.1530629  0.6431968    0.00000       Uiso       1.00
      C351          C  0.0095450  0.1524892  0.6693268    0.00000       Uiso       1.00
      C352          C  0.9928104  0.1436612  0.6807569    0.00000       Uiso       1.00
      H126          H  0.9769382  0.1284474  0.6760115    0.00000       Uiso       1.00
      H127          H  0.0299709  0.1466742  0.6090665    0.00000       Uiso       1.00
      H128          H  0.0359508  0.1596643  0.6335918    0.00000       Uiso       1.00
      C353          C  0.9205725  0.2090764  0.6439267    0.00000       Uiso       1.00
      F181          F  0.8998901  0.2176982  0.6513735    0.00000       Uiso       1.00
      F182          F  0.9230660  0.2147735  0.6562641    0.00000       Uiso       1.00
      F183          F  0.9294816  0.2158761  0.6241437    0.00000       Uiso       1.00
      C354          C  0.0841820  0.1017626  0.5456941    0.00000       Uiso       1.00
      F184          F  0.0928006  0.1063826  0.5250247    0.00000       Uiso       1.00
      F185          F  0.0909785  0.1058420  0.5546142    0.00000       Uiso       1.00
      F186          F  0.0898944  0.0812388  0.5481617    0.00000       Uiso       1.00
      C355          C  0.9768374  0.1436202  0.7092857    0.00000       Uiso       1.00
      F187          F  0.9814519  0.1510545  0.7179185    0.00000       Uiso       1.00
      F188          F  0.9563046  0.1559487  0.7150015    0.00000       Uiso       1.00
      F189          F  0.9809318  0.1238271  0.7160559    0.00000       Uiso       1.00
      C356          C  0.0187682  0.0455461  0.6018277    0.00000       Uiso       1.00
      F190          F  0.0262176  0.0248700  0.6064174    0.00000       Uiso       1.00
      F191          F  0.9989682  0.0544602  0.6059200    0.00000       Uiso       1.00
      F192          F  0.0310952  0.0480438  0.5813075    0.00000       Uiso       1.00
      C357          C  0.3749081  0.3748171  0.1249997    0.00000       Uiso       1.00
      C358          C  0.2953088  0.2576271  0.1699721    0.00000       Uiso       1.00
      C359          C  0.2901656  0.2716539  0.1868659    0.00000       Uiso       1.00
      C360          C  0.2735483  0.2710155  0.2125891    0.00000       Uiso       1.00
      C361          C  0.2619502  0.2567812  0.2212949    0.00000       Uiso       1.00
      C362          C  0.2668690  0.2429786  0.2043540    0.00000       Uiso       1.00
      C363          C  0.2836221  0.2434754  0.1786425    0.00000       Uiso       1.00
      H129          H  0.3083634  0.2574410  0.1501082    0.00000       Uiso       1.00
      H130          H  0.2878171  0.2328511  0.1652270    0.00000       Uiso       1.00
      H131          H  0.2491378  0.2566190  0.2412470    0.00000       Uiso       1.00
      C364          C  0.5007631  0.3521723  0.9371395    0.00000       Uiso       1.00
      C365          C  0.5265464  0.3404471  0.9282436    0.00000       Uiso       1.00
      C366          C  0.4922642  0.3612846  0.9199025    0.00000       Uiso       1.00
      C367          C  0.5093656  0.3584237  0.8940765    0.00000       Uiso       1.00
      C368          C  0.5351961  0.3464270  0.8851804    0.00000       Uiso       1.00
      C369          C  0.5436892  0.3374622  0.9024115    0.00000       Uiso       1.00
      H132          H  0.5335657  0.3336335  0.9410975    0.00000       Uiso       1.00
      H133          H  0.5635391  0.3282609  0.8959724    0.00000       Uiso       1.00
      H134          H  0.5023639  0.3655678  0.8811166    0.00000       Uiso       1.00
      C370          C  0.4597711  0.3128001  0.2280723    0.00000       Uiso       1.00
      C371          C  0.4546258  0.3296735  0.2421238    0.00000       Uiso       1.00
      C372          C  0.4764076  0.2870760  0.2286732    0.00000       Uiso       1.00
      C373          C  0.4880225  0.2783495  0.2428948    0.00000       Uiso       1.00
      C374          C  0.4831014  0.2952702  0.2567221    0.00000       Uiso       1.00
      C375          C  0.4663292  0.3209824  0.2562628    0.00000       Uiso       1.00
      H135          H  0.4415568  0.3495370  0.2423390    0.00000       Uiso       1.00
      H136          H  0.4621322  0.3343823  0.2669068    0.00000       Uiso       1.00
      H137          H  0.5008495  0.2583972  0.2430277    0.00000       Uiso       1.00
      C376          C  0.2489308  0.5626439  0.1479210    0.00000       Uiso       1.00
      C377          C  0.2231496  0.5715227  0.1596592    0.00000       Uiso       1.00
      C378          C  0.2574104  0.5798942  0.1388338    0.00000       Uiso       1.00
      C379          C  0.2402922  0.6057160  0.1417325    0.00000       Uiso       1.00
      C380          C  0.2144640  0.6145946  0.1537422    0.00000       Uiso       1.00
      C381          C  0.2059901  0.5973504  0.1626818    0.00000       Uiso       1.00
      H138          H  0.2161446  0.5586588  0.1664539    0.00000       Uiso       1.00
      H139          H  0.1861423  0.6037760  0.1718925    0.00000       Uiso       1.00
      H140          H  0.2472793  0.6186864  0.1346074    0.00000       Uiso       1.00
      C382          C  0.4643098  0.3744104  0.9291123    0.00000       Uiso       1.00
      F193          F  0.4613874  0.3802827  0.9124700    0.00000       Uiso       1.00
      F194          F  0.4569733  0.3611215  0.9412895    0.00000       Uiso       1.00
      F195          F  0.4538750  0.3915434  0.9403951    0.00000       Uiso       1.00
      C383          C  0.4820089  0.2683464  0.2138512    0.00000       Uiso       1.00
      F196          F  0.4957156  0.2487896  0.2167890    0.00000       Uiso       1.00
      F197          F  0.4640245  0.2691763  0.2205577    0.00000       Uiso       1.00
      F198          F  0.4904331  0.2732084  0.1932348    0.00000       Uiso       1.00
      C384          C  0.2853620  0.5707036  0.1256946    0.00000       Uiso       1.00
      F199          F  0.2882679  0.5873544  0.1198467    0.00000       Uiso       1.00
      F200          F  0.2927170  0.5585070  0.1389657    0.00000       Uiso       1.00
      F201          F  0.2957924  0.5594459  0.1085451    0.00000       Uiso       1.00
      C385          C  0.2679499  0.2858101  0.2313405    0.00000       Uiso       1.00
      F202          F  0.2542596  0.2828437  0.2508929    0.00000       Uiso       1.00
      F203          F  0.2859386  0.2791048  0.2305007    0.00000       Uiso       1.00
      F204          F  0.2595071  0.3064335  0.2265086    0.00000       Uiso       1.00
      C386          C  0.3385324  0.2927217  0.1498752    0.00000       Uiso       1.00
      C387          C  0.3257533  0.3154884  0.1612679    0.00000       Uiso       1.00
      C388          C  0.3011050  0.3237088  0.1810261    0.00000       Uiso       1.00
      C389          C  0.2895696  0.3097224  0.1890761    0.00000       Uiso       1.00
      C390          C  0.3024351  0.2868047  0.1778454    0.00000       Uiso       1.00
      C391          C  0.3271334  0.2785279  0.1580918    0.00000       Uiso       1.00
      H141          H  0.3573248  0.2860450  0.1343537    0.00000       Uiso       1.00
      H142          H  0.2704320  0.3170306  0.2039917    0.00000       Uiso       1.00
      C392          C  0.4470175  0.3620624  0.0165430    0.00000       Uiso       1.00
      C393          C  0.4683986  0.3634720  0.0065471    0.00000       Uiso       1.00
      C394          C  0.4436607  0.3571818  0.0001296    0.00000       Uiso       1.00
      C395          C  0.4611064  0.3537298  0.9746135    0.00000       Uiso       1.00
      C396          C  0.4823901  0.3553877  0.9645531    0.00000       Uiso       1.00
      C397          C  0.4857485  0.3603230  0.9809602    0.00000       Uiso       1.00
      H143          H  0.4718246  0.3667367  0.0186513    0.00000       Uiso       1.00
      H144          H  0.4580005  0.3495142  0.9627951    0.00000       Uiso       1.00
      C398          C  0.4241327  0.3384625  0.1842752    0.00000       Uiso       1.00
      C399          C  0.4113619  0.3498218  0.2070585    0.00000       Uiso       1.00
      C400          C  0.4487894  0.3187162  0.1760259    0.00000       Uiso       1.00
      C401          C  0.4603409  0.3106457  0.1900006    0.00000       Uiso       1.00
      C402          C  0.4474840  0.3218428  0.2129347    0.00000       Uiso       1.00
      C403          C  0.4227773  0.3415844  0.2212403    0.00000       Uiso       1.00
      H145          H  0.3925631  0.3653334  0.2137579    0.00000       Uiso       1.00
      H146          H  0.4794840  0.2957408  0.1826706    0.00000       Uiso       1.00
      C404          C  0.3027288  0.4832550  0.1379127    0.00000       Uiso       1.00
      C405          C  0.2813391  0.4932529  0.1365182    0.00000       Uiso       1.00
      C406          C  0.3060774  0.4996614  0.1428169    0.00000       Uiso       1.00
      C407          C  0.2886140  0.5251722  0.1463082    0.00000       Uiso       1.00
      C408          C  0.2673215  0.5352351  0.1446654    0.00000       Uiso       1.00
      C409          C  0.2639712  0.5188351  0.1397066    0.00000       Uiso       1.00
      H147          H  0.2779194  0.4811534  0.1332361    0.00000       Uiso       1.00
      H148          H  0.2917144  0.5369845  0.1505409    0.00000       Uiso       1.00
      C410          C  0.4203595  0.3559334  0.0099625    0.00000       Uiso       1.00
      F205          F  0.4210885  0.3518234  0.9939093    0.00000       Uiso       1.00
      F206          F  0.4197298  0.3405540  0.0244704    0.00000       Uiso       1.00
      F207          F  0.4030098  0.3745006  0.0187867    0.00000       Uiso       1.00
      C411          C  0.5083991  0.3627755  0.9710841    0.00000       Uiso       1.00
      F208          F  0.5204930  0.3597034  0.9501121    0.00000       Uiso       1.00
      F209          F  0.5017598  0.3821656  0.9754203    0.00000       Uiso       1.00
      F210          F  0.5197120  0.3482731  0.9804090    0.00000       Uiso       1.00
      C412          C  0.2864055  0.3482314  0.1945017    0.00000       Uiso       1.00
      F211          F  0.2669706  0.3516020  0.2098126    0.00000       Uiso       1.00
      F212          F  0.2964600  0.3469948  0.2030337    0.00000       Uiso       1.00
      F213          F  0.2849046  0.3642503  0.1806343    0.00000       Uiso       1.00
      C413          C  0.3423438  0.2534508  0.1453099    0.00000       Uiso       1.00
      F214          F  0.3303847  0.2444314  0.1541726    0.00000       Uiso       1.00
      F215          F  0.3484708  0.2566638  0.1246789    0.00000       Uiso       1.00
      F216          F  0.3594357  0.2406935  0.1476161    0.00000       Uiso       1.00
      C414          C  0.4634808  0.3052766  0.1514836    0.00000       Uiso       1.00
      F217          F  0.4829245  0.2899706  0.1480906    0.00000       Uiso       1.00
      F218          F  0.4534334  0.2967429  0.1527076    0.00000       Uiso       1.00
      F219          F  0.4649599  0.3191674  0.1354850    0.00000       Uiso       1.00
      C415          C  0.4075758  0.3543295  0.2463362    0.00000       Uiso       1.00
      F220          F  0.4195479  0.3454535  0.2553427    0.00000       Uiso       1.00
      F221          F  0.4014315  0.3749651  0.2431533    0.00000       Uiso       1.00
      F222          F  0.3904950  0.3520047  0.2590900    0.00000       Uiso       1.00
      C416          C  0.2413114  0.5287147  0.1372688    0.00000       Uiso       1.00
      F223          F  0.2292045  0.5496822  0.1403715    0.00000       Uiso       1.00
      F224          F  0.2479396  0.5244068  0.1178725    0.00000       Uiso       1.00
      F225          F  0.2300160  0.5193686  0.1517578    0.00000       Uiso       1.00
      C417          C  0.3293869  0.4898268  0.1440505    0.00000       Uiso       1.00
      F226          F  0.3286477  0.5058739  0.1481856    0.00000       Uiso       1.00
      F227          F  0.3300387  0.4752965  0.1594087    0.00000       Uiso       1.00
      F228          F  0.3467293  0.4810297  0.1254703    0.00000       Uiso       1.00
      C418          C  0.3748858  0.3335117  0.1351437    0.00000       Uiso       1.00
      C419          C  0.3612892  0.3598053  0.1348316    0.00000       Uiso       1.00
      C420          C  0.3353815  0.3710596  0.1448445    0.00000       Uiso       1.00
      C421          C  0.3240928  0.3568037  0.1530604    0.00000       Uiso       1.00
      C422          C  0.3379655  0.3306737  0.1524873    0.00000       Uiso       1.00
      C423          C  0.3635274  0.3192436  0.1436599    0.00000       Uiso       1.00
      H149          H  0.3946134  0.3239890  0.1284465    0.00000       Uiso       1.00
      H150          H  0.3233548  0.3909339  0.1466714    0.00000       Uiso       1.00
      H151          H  0.3043849  0.3664087  0.1596612    0.00000       Uiso       1.00
      C424          C  0.3936786  0.3710648  0.0963762    0.00000       Uiso       1.00
      C425          C  0.4060539  0.3849919  0.0836795    0.00000       Uiso       1.00
      C426          C  0.3983014  0.3551837  0.0817303    0.00000       Uiso       1.00
      C427          C  0.4156055  0.3521422  0.0561917    0.00000       Uiso       1.00
      C428          C  0.4284270  0.3654604  0.0439340    0.00000       Uiso       1.00
      C429          C  0.4231392  0.3821810  0.0580593    0.00000       Uiso       1.00
      H152          H  0.4025586  0.3980123  0.0938794    0.00000       Uiso       1.00
      H153          H  0.3886316  0.3449708  0.0895793    0.00000       Uiso       1.00
      H154          H  0.4190955  0.3390449  0.0460936    0.00000       Uiso       1.00
      C430          C  0.3885451  0.3649634  0.1399970    0.00000       Uiso       1.00
      C431          C  0.3749679  0.3646130  0.1662901    0.00000       Uiso       1.00
      C432          C  0.4144518  0.3549671  0.1287280    0.00000       Uiso       1.00
      C433          C  0.4257570  0.3467304  0.1429719    0.00000       Uiso       1.00
      C434          C  0.4119029  0.3472653  0.1691027    0.00000       Uiso       1.00
      C435          C  0.3863429  0.3560761  0.1805457    0.00000       Uiso       1.00
      H155          H  0.3552424  0.3712964  0.1758226    0.00000       Uiso       1.00
      H156          H  0.4264653  0.3531694  0.1088511    0.00000       Uiso       1.00
      H157          H  0.4454627  0.3401436  0.1333573    0.00000       Uiso       1.00
      C436          C  0.3561193  0.4034350  0.1287938    0.00000       Uiso       1.00
      C437          C  0.3437240  0.4161520  0.1148857    0.00000       Uiso       1.00
      C438          C  0.3514982  0.4180579  0.1446955    0.00000       Uiso       1.00
      C439          C  0.3341778  0.4435920  0.1477743    0.00000       Uiso       1.00
      C440          C  0.3213368  0.4558690  0.1344747    0.00000       Uiso       1.00
      C441          C  0.3266220  0.4417680  0.1177342    0.00000       Uiso       1.00
      H158          H  0.3472169  0.4059709  0.1018508    0.00000       Uiso       1.00
      H159          H  0.3611819  0.4101940  0.1548963    0.00000       Uiso       1.00
      H160          H  0.3306906  0.4536710  0.1608858    0.00000       Uiso       1.00
      C442          C  0.4356852  0.3981729  0.0455442    0.00000       Uiso       1.00
      F229          F  0.4489120  0.3935831  0.0248681    0.00000       Uiso       1.00
      F230          F  0.4208604  0.4186931  0.0480419    0.00000       Uiso       1.00
      F231          F  0.4465705  0.3940808  0.0544583    0.00000       Uiso       1.00
      C443          C  0.3703500  0.3560748  0.2090745    0.00000       Uiso       1.00
      F232          F  0.3824105  0.3486280  0.2176964    0.00000       Uiso       1.00
      F233          F  0.3546413  0.3758578  0.2158740    0.00000       Uiso       1.00
      F234          F  0.3621591  0.3437376  0.2147719    0.00000       Uiso       1.00
      C444          C  0.3140544  0.4543062  0.1017612    0.00000       Uiso       1.00
      F235          F  0.3008159  0.4749756  0.1063812    0.00000       Uiso       1.00
      F236          F  0.3288657  0.4518385  0.0812373    0.00000       Uiso       1.00
      F237          F  0.3031785  0.4453860  0.1058411    0.00000       Uiso       1.00
      C445          C  0.3795412  0.2907149  0.1436196    0.00000       Uiso       1.00
      F238          F  0.3674924  0.2820821  0.1510538    0.00000       Uiso       1.00
      F239          F  0.3952404  0.2839442  0.1238266    0.00000       Uiso       1.00
      F240          F  0.3877452  0.2849996  0.1559484    0.00000       Uiso       1.00
      C446          C  0.2499991  0.0007326  0.0000014    0.00000       Uiso       1.00
      C447          C  0.2155690  0.0801958  0.1517323    0.00000       Uiso       1.00
      C448          C  0.2272904  0.0853664  0.1259652    0.00000       Uiso       1.00
      C449          C  0.2363907  0.1019965  0.1174972    0.00000       Uiso       1.00
      C450          C  0.2335213  0.1135801  0.1346135    0.00000       Uiso       1.00
      C451          C  0.2215281  0.1086336  0.1604280    0.00000       Uiso       1.00
      C452          C  0.2125755  0.0918678  0.1688900    0.00000       Uiso       1.00
      H161          H  0.2087649  0.0671311  0.1587276    0.00000       Uiso       1.00
      H162          H  0.2033773  0.0876516  0.1887270    0.00000       Uiso       1.00
      H163          H  0.2406560  0.1264027  0.1276358    0.00000       Uiso       1.00
      C453          C  0.1880734  0.8747687  0.0846349    0.00000       Uiso       1.00
      C454          C  0.2049655  0.8490016  0.0794642    0.00000       Uiso       1.00
      C455          C  0.1623430  0.8832367  0.1012650    0.00000       Uiso       1.00
      C456          C  0.1536289  0.8661205  0.1128485    0.00000       Uiso       1.00
      C457          C  0.1705685  0.8403059  0.1079020    0.00000       Uiso       1.00
      C458          C  0.1962869  0.8318440  0.0911362    0.00000       Uiso       1.00
      H164          H  0.2248342  0.8420064  0.0663996    0.00000       Uiso       1.00
      H165          H  0.2097014  0.8120070  0.0869200    0.00000       Uiso       1.00
      H166          H  0.1336714  0.8730982  0.1256711    0.00000       Uiso       1.00
      C459          C  0.4378859  0.9161007  0.8740376    0.00000       Uiso       1.00
      C460          C  0.4467610  0.9212714  0.8482705    0.00000       Uiso       1.00
      C461          C  0.4551482  0.8994706  0.8825057    0.00000       Uiso       1.00
      C462          C  0.4809787  0.8878871  0.8653894    0.00000       Uiso       1.00
      C463          C  0.4898536  0.8928337  0.8395749    0.00000       Uiso       1.00
      C464          C  0.4725972  0.9095994  0.8311129    0.00000       Uiso       1.00
      H167          H  0.4338875  0.9343360  0.8412753    0.00000       Uiso       1.00
      H168          H  0.4790198  0.9138156  0.8112759    0.00000       Uiso       1.00
      H169          H  0.4939584  0.8750645  0.8723671    0.00000       Uiso       1.00
      C465          C  0.1467423  0.1266981  0.9153675    0.00000       Uiso       1.00
      C466          C  0.1326966  0.1524652  0.9205382    0.00000       Uiso       1.00
      C467          C  0.1461101  0.1182301  0.8987374    0.00000       Uiso       1.00
      C468          C  0.1318632  0.1353463  0.8871539    0.00000       Uiso       1.00
      C469          C  0.1180418  0.1611608  0.8921003    0.00000       Uiso       1.00
      C470          C  0.1185324  0.1696228  0.9088662    0.00000       Uiso       1.00
      H170          H  0.1325054  0.1594605  0.9336029    0.00000       Uiso       1.00
      H171          H  0.1078936  0.1894598  0.9130824    0.00000       Uiso       1.00
      H172          H  0.1317062  0.1283686  0.8743312    0.00000       Uiso       1.00
      C471          C  0.1435929  0.9111733  0.1068935    0.00000       Uiso       1.00
      F241          F  0.1240339  0.9140714  0.1205900    0.00000       Uiso       1.00
      F242          F  0.1484496  0.9185072  0.1153318    0.00000       Uiso       1.00
      F243          F  0.1444152  0.9216218  0.0889250    0.00000       Uiso       1.00
      C472          C  0.4459618  0.8938422  0.9104422    0.00000       Uiso       1.00
      F244          F  0.4626227  0.8801456  0.9133403    0.00000       Uiso       1.00
      F245          F  0.4346910  0.9118107  0.9208907    0.00000       Uiso       1.00
      F246          F  0.4337713  0.8854038  0.9177760    0.00000       Uiso       1.00
      C473          C  0.1609251  0.0902935  0.8931090    0.00000       Uiso       1.00
      F247          F  0.1579608  0.0873954  0.8794124    0.00000       Uiso       1.00
      F248          F  0.1815539  0.0829597  0.8846706    0.00000       Uiso       1.00
      F249          F  0.1542274  0.0798450  0.9110774    0.00000       Uiso       1.00
      C474          C  0.2495124  0.1076250  0.0895606    0.00000       Uiso       1.00
      F250          F  0.2553747  0.1213216  0.0866626    0.00000       Uiso       1.00
      F251          F  0.2666585  0.0896565  0.0791121    0.00000       Uiso       1.00
      F252          F  0.2362172  0.1160633  0.0822269    0.00000       Uiso       1.00
      C475          C  0.2386274  0.0370315  0.0935367    0.00000       Uiso       1.00
      C476          C  0.2372087  0.0498252  0.0721731    0.00000       Uiso       1.00
      C477          C  0.2323103  0.0744724  0.0688487    0.00000       Uiso       1.00
      C478          C  0.2288479  0.0859925  0.0863104    0.00000       Uiso       1.00
      C479          C  0.2305149  0.0731127  0.1075765    0.00000       Uiso       1.00
      C480          C  0.2354681  0.0484156  0.1109026    0.00000       Uiso       1.00
      H173          H  0.2419057  0.0182391  0.0969376    0.00000       Uiso       1.00
      H174          H  0.2246183  0.1051292  0.0832294    0.00000       Uiso       1.00
      C481          C  0.2136964  0.9285607  0.0490939    0.00000       Uiso       1.00
      C482          C  0.2250712  0.9071972  0.0363001    0.00000       Uiso       1.00
      C483          C  0.1939478  0.9318850  0.0737411    0.00000       Uiso       1.00
      C484          C  0.1858900  0.9144234  0.0852611    0.00000       Uiso       1.00
      C485          C  0.1971026  0.8931574  0.0723813    0.00000       Uiso       1.00
      C486          C  0.2168466  0.8898314  0.0476841    0.00000       Uiso       1.00
      H175          H  0.2405854  0.9037963  0.0175077    0.00000       Uiso       1.00
      H176          H  0.1709828  0.9175044  0.1043979    0.00000       Uiso       1.00
      C487          C  0.3584709  0.9516418  0.9278295    0.00000       Uiso       1.00
      C488          C  0.3684596  0.9644355  0.9064659    0.00000       Uiso       1.00
      C489          C  0.3748952  0.9269947  0.9311539    0.00000       Uiso       1.00
      C490          C  0.4004145  0.9154746  0.9136924    0.00000       Uiso       1.00
      C491          C  0.4104681  0.9283544  0.8924262    0.00000       Uiso       1.00
      C492          C  0.3940501  0.9530515  0.8891001    0.00000       Uiso       1.00
      H177          H  0.3563463  0.9832280  0.9030649    0.00000       Uiso       1.00
      H178          H  0.4122409  0.8963378  0.9167734    0.00000       Uiso       1.00
      C493          C  0.1906162  0.0729061  0.9509087    0.00000       Uiso       1.00
      C494          C  0.1678339  0.0942699  0.9637023    0.00000       Uiso       1.00
      C495          C  0.1988389  0.0695816  0.9262616    0.00000       Uiso       1.00
      C496          C  0.1848397  0.0870432  0.9147415    0.00000       Uiso       1.00
      C497          C  0.1619065  0.1083095  0.9276212    0.00000       Uiso       1.00
      C498          C  0.1536274  0.1116356  0.9523183    0.00000       Uiso       1.00
      H179          H  0.1611548  0.0976709  0.9824947    0.00000       Uiso       1.00
      H180          H  0.1921502  0.0839621  0.8956048    0.00000       Uiso       1.00
      C499          C  0.1804913  0.9551656  0.0884568    0.00000       Uiso       1.00
      F253          F  0.1651859  0.9544096  0.1078882    0.00000       Uiso       1.00
      F254          F  0.1943817  0.9558044  0.0899469    0.00000       Uiso       1.00
      F255          F  0.1719448  0.9725164  0.0784287    0.00000       Uiso       1.00
      C500          C  0.2296081  0.8672012  0.0324588    0.00000       Uiso       1.00
      F256          F  0.2207410  0.8550921  0.0444068    0.00000       Uiso       1.00
      F257          F  0.2272783  0.8738514  0.0153861    0.00000       Uiso       1.00
      F258          F  0.2502520  0.8559079  0.0263129    0.00000       Uiso       1.00
      C501          C  0.2310514  0.0891879  0.0455680    0.00000       Uiso       1.00
      F259          F  0.2269254  0.1086194  0.0463240    0.00000       Uiso       1.00
      F260          F  0.2496261  0.0791597  0.0282173    0.00000       Uiso       1.00
      F261          F  0.2156709  0.0906781  0.0449290    0.00000       Uiso       1.00
      C502          C  0.2379315  0.0331904  0.1335329    0.00000       Uiso       1.00
      F262          F  0.2348506  0.0451384  0.1456420    0.00000       Uiso       1.00
      F263          F  0.2234334  0.0270446  0.1448261    0.00000       Uiso       1.00
      F264          F  0.2573340  0.0161177  0.1268828    0.00000       Uiso       1.00
      C503          C  0.3650712  0.9122791  0.9544346    0.00000       Uiso       1.00
      F265          F  0.3811325  0.8928477  0.9536787    0.00000       Uiso       1.00
      F266          F  0.3562668  0.9223074  0.9717853    0.00000       Uiso       1.00
      F267          F  0.3505419  0.9107889  0.9550734    0.00000       Uiso       1.00
      C504          C  0.4039187  0.9682767  0.8664700    0.00000       Uiso       1.00
      F268          F  0.4248950  0.9563287  0.8543609    0.00000       Uiso       1.00
      F269          F  0.3945681  0.9744224  0.8551766    0.00000       Uiso       1.00
      F270          F  0.3995983  0.9853495  0.8731201    0.00000       Uiso       1.00
      C505          C  0.1285337  0.1342660  0.9675435    0.00000       Uiso       1.00
      F271          F  0.1195054  0.1463750  0.9555955    0.00000       Uiso       1.00
      F272          F  0.1157813  0.1276160  0.9846163    0.00000       Uiso       1.00
      F273          F  0.1317387  0.1455593  0.9736891    0.00000       Uiso       1.00
      C506          C  0.2233784  0.0463008  0.9115461    0.00000       Uiso       1.00
      F274          F  0.2267484  0.0470566  0.8921147    0.00000       Uiso       1.00
      F275          F  0.2393979  0.0456618  0.9100558    0.00000       Uiso       1.00
      F276          F  0.2221544  0.0289501  0.9215744    0.00000       Uiso       1.00
      C507          C  0.2601739  0.0007395  0.0311547    0.00000       Uiso       1.00
      C508          C  0.2462369  0.0143350  0.0187891    0.00000       Uiso       1.00
      C509          C  0.2303372  0.0402276  0.0234378    0.00000       Uiso       1.00
      C510          C  0.2272875  0.0515015  0.0407561    0.00000       Uiso       1.00
      C511          C  0.2406156  0.0376291  0.0535674    0.00000       Uiso       1.00
      C512          C  0.2573546  0.0120833  0.0482546    0.00000       Uiso       1.00
      H181          H  0.2732081  0.9810239  0.0276402    0.00000       Uiso       1.00
      H182          H  0.2201158  0.0522540  0.0137778    0.00000       Uiso       1.00
      H183          H  0.2141760  0.0711973  0.0442652    0.00000       Uiso       1.00
      C513          C  0.2401584  0.9819447  0.0136038    0.00000       Uiso       1.00
      C514          C  0.2398167  0.9695792  0.0000083    0.00000       Uiso       1.00
      C515          C  0.2301657  0.9772957  0.0394964    0.00000       Uiso       1.00
      C516          C  0.2219417  0.9599774  0.0507701    0.00000       Uiso       1.00
      C517          C  0.2224857  0.9471664  0.0368978    0.00000       Uiso       1.00
      C518          C  0.2312921  0.9524794  0.0113521    0.00000       Uiso       1.00
      H184          H  0.2464957  0.9730957  0.9802929    0.00000       Uiso       1.00
      H185          H  0.2283612  0.9869555  0.0515226    0.00000       Uiso       1.00
      H186          H  0.2153576  0.9564682  0.0704659    0.00000       Uiso       1.00
      C519          C  0.2786248  0.9871320  0.9812136    0.00000       Uiso       1.00
      C520          C  0.2913325  0.0007276  0.9688477    0.00000       Uiso       1.00
      C521          C  0.2932664  0.9612393  0.9765648    0.00000       Uiso       1.00
      C522          C  0.3188089  0.9499655  0.9592465    0.00000       Uiso       1.00
      C523          C  0.3310758  0.9638379  0.9464352    0.00000       Uiso       1.00
      C524          C  0.3169564  0.9893837  0.9517479    0.00000       Uiso       1.00
      H187          H  0.2811372  0.0204431  0.9723622    0.00000       Uiso       1.00
      H188          H  0.2854113  0.9492131  0.9862247    0.00000       Uiso       1.00
      H189          H  0.3289022  0.9302697  0.9557374    0.00000       Uiso       1.00
      C525          C  0.2349720  0.0195222  0.9863989    0.00000       Uiso       1.00
      C526          C  0.2086693  0.0318883  0.9999945    0.00000       Uiso       1.00
      C527          C  0.2462230  0.0241704  0.9605061    0.00000       Uiso       1.00
      C528          C  0.2319544  0.0414886  0.9492323    0.00000       Uiso       1.00
      C529          C  0.2058150  0.0543004  0.9631048    0.00000       Uiso       1.00
      C530          C  0.1943888  0.0489881  0.9886507    0.00000       Uiso       1.00
      H190          H  0.1991507  0.0283721  0.0197102    0.00000       Uiso       1.00
      H191          H  0.2661044  0.0145101  0.9484798    0.00000       Uiso       1.00
      H192          H  0.2415570  0.0449972  0.9295363    0.00000       Uiso       1.00
      C531          C  0.2312981  0.9399469  0.9953409    0.00000       Uiso       1.00
      F277          F  0.2238625  0.9267040  0.0073767    0.00000       Uiso       1.00
      F278          F  0.2189499  0.9547687  0.9871629    0.00000       Uiso       1.00
      F279          F  0.2510890  0.9290875  0.9796306    0.00000       Uiso       1.00
      C532          C  0.3294836  0.0053951  0.9392133    0.00000       Uiso       1.00
      F280          F  0.3501613  0.9933592  0.9259723    0.00000       Uiso       1.00
      F281          F  0.3205520  0.0211051  0.9283538    0.00000       Uiso       1.00
      F282          F  0.3270099  0.0135733  0.9540350    0.00000       Uiso       1.00
      C533          C  0.1658523  0.0615212  0.0046622    0.00000       Uiso       1.00
      F283          F  0.1572083  0.0747641  0.9926264    0.00000       Uiso       1.00
      F284          F  0.1601474  0.0466999  0.0128408    0.00000       Uiso       1.00
      F285          F  0.1590742  0.0723808  0.0203720    0.00000       Uiso       1.00
      C534          C  0.2733576  0.9960720  0.0607891    0.00000       Uiso       1.00
      F286          F  0.2687595  0.0081079  0.0740301    0.00000       Uiso       1.00
      F287          F  0.2692767  0.9803619  0.0716485    0.00000       Uiso       1.00
      F288          F  0.2938838  0.9878938  0.0459674    0.00000       Uiso       1.00
      C535          C  0.6910743  0.6636376  0.2753715    0.00000       Uiso       1.00
      C536          C  0.6965575  0.6531010  0.2549099    0.00000       Uiso       1.00
      C537          C  0.6657608  0.6437937  0.3047394    0.00000       Uiso       1.00
      C538          C  0.6719829  0.6327960  0.2853752    0.00000       Uiso       1.00
      C539          C  0.6871127  0.6370040  0.2605929    0.00000       Uiso       1.00
      C540          C  0.6748641  0.6590930  0.3004545    0.00000       Uiso       1.00
      H193          H  0.6912010  0.6272535  0.2466705    0.00000       Uiso       1.00
      H194          H  0.6686574  0.6671362  0.3169191    0.00000       Uiso       1.00
        B1          B  0.7183360  0.7273759  0.2855566    0.00000       Uiso       1.00
        O1          O  0.6501812  0.6377219  0.3281159    0.00000       Uiso       1.00
        O2          O  0.7571933  0.6702175  0.1542349    0.00000       Uiso       1.00
      C541          C  0.7113915  0.6585723  0.2295974    0.00000       Uiso       1.00
      C542          C  0.7219471  0.6735357  0.2245510    0.00000       Uiso       1.00
      C543          C  0.7311954  0.6545393  0.1844556    0.00000       Uiso       1.00
      C544          C  0.7422118  0.6676672  0.1796852    0.00000       Uiso       1.00
      C545          C  0.7380330  0.6773017  0.1990189    0.00000       Uiso       1.00
      C546          C  0.7159059  0.6497178  0.2088480    0.00000       Uiso       1.00
      H195          H  0.7477966  0.6871256  0.1933609    0.00000       Uiso       1.00
      H196          H  0.7078461  0.6394718  0.2106817    0.00000       Uiso       1.00
        B2          B  0.6476657  0.6211330  0.3205501    0.00000       Uiso       1.00
        O3          O  0.7372387  0.6467595  0.1628099    0.00000       Uiso       1.00
        O4          O  0.7049485  0.7135015  0.3022883    0.00000       Uiso       1.00
      C547          C  0.7165051  0.6839957  0.2448532    0.00000       Uiso       1.00
      C548          C  0.7015530  0.6784829  0.2703604    0.00000       Uiso       1.00
      C549          C  0.7205856  0.7093007  0.2606281    0.00000       Uiso       1.00
      C550          C  0.7074692  0.7030513  0.2847598    0.00000       Uiso       1.00
      C551          C  0.6978176  0.6879105  0.2902074    0.00000       Uiso       1.00
      C552          C  0.7253780  0.7002156  0.2405217    0.00000       Uiso       1.00
      H197          H  0.6880050  0.6838007  0.3097848    0.00000       Uiso       1.00
      H198          H  0.7356167  0.7064430  0.2222264    0.00000       Uiso       1.00
        B3          B  0.7538314  0.6568351  0.1437149    0.00000       Uiso       1.00
        O5          O  0.7283856  0.7248872  0.2588987    0.00000       Uiso       1.00
        O6          O  0.6615182  0.6178010  0.2932955    0.00000       Uiso       1.00
      C553          C  0.6300821  0.3363646  0.7246287    0.00000       Uiso       1.00
      C554          C  0.6045672  0.3469011  0.7450903    0.00000       Uiso       1.00
      C555          C  0.6142927  0.3562084  0.6952608    0.00000       Uiso       1.00
      C556          C  0.5901529  0.3672060  0.7146249    0.00000       Uiso       1.00
      C557          C  0.5847083  0.3629980  0.7394073    0.00000       Uiso       1.00
      C558          C  0.6344103  0.3409092  0.6995457    0.00000       Uiso       1.00
      H199          H  0.5651237  0.3727486  0.7533296    0.00000       Uiso       1.00
      H200          H  0.6527115  0.3328660  0.6830812    0.00000       Uiso       1.00
        B4          B  0.7312671  0.2726265  0.7144438    0.00000       Uiso       1.00
        O7          O  0.6160178  0.3622802  0.6718843    0.00000       Uiso       1.00
        O8          O  0.5816444  0.3297847  0.8457654    0.00000       Uiso       1.00
      C559          C  0.5995600  0.3414299  0.7704028    0.00000       Uiso       1.00
      C560          C  0.6200325  0.3264664  0.7754492    0.00000       Uiso       1.00
      C561          C  0.5701891  0.3454628  0.8155445    0.00000       Uiso       1.00
      C562          C  0.5895629  0.3323349  0.8203150    0.00000       Uiso       1.00
      C563          C  0.6143522  0.3227005  0.8009813    0.00000       Uiso       1.00
      C564          C  0.5744705  0.3502843  0.7911522    0.00000       Uiso       1.00
      H201          H  0.6282818  0.3128766  0.8066394    0.00000       Uiso       1.00
      H202          H  0.5579985  0.3605302  0.7893184    0.00000       Uiso       1.00
        B5          B  0.5893477  0.3788691  0.6794500    0.00000       Uiso       1.00
        O9          O  0.5468069  0.3532426  0.8371903    0.00000       Uiso       1.00
       O10          O  0.7207370  0.2865008  0.6977120    0.00000       Uiso       1.00
      C565          C  0.6453527  0.3160065  0.7551470    0.00000       Uiso       1.00
      C566          C  0.6503952  0.3215192  0.7296399    0.00000       Uiso       1.00
      C567          C  0.6905130  0.2907016  0.7393722    0.00000       Uiso       1.00
      C568          C  0.6952789  0.2969509  0.7152405    0.00000       Uiso       1.00
      C569          C  0.6759341  0.3120917  0.7097929    0.00000       Uiso       1.00
      C570          C  0.6661140  0.2997867  0.7594786    0.00000       Uiso       1.00
      H203          H  0.6815892  0.3162014  0.6902155    0.00000       Uiso       1.00
      H204          H  0.6642848  0.2935592  0.7777739    0.00000       Uiso       1.00
        B6          B  0.5543800  0.3431670  0.8562853    0.00000       Uiso       1.00
       O11          O  0.7121702  0.2751150  0.7411016    0.00000       Uiso       1.00
       O12          O  0.5726134  0.3822011  0.7067046    0.00000       Uiso       1.00
      C571          C  0.5386397  0.2448536  0.3160049    0.00000       Uiso       1.00
      C572          C  0.5280845  0.2703608  0.3215177    0.00000       Uiso       1.00
      C573          C  0.5187843  0.2606285  0.2907000    0.00000       Uiso       1.00
      C574          C  0.5077689  0.2847601  0.2969493    0.00000       Uiso       1.00
      C575          C  0.5119730  0.2902078  0.3120901    0.00000       Uiso       1.00
      C576          C  0.5340983  0.2405221  0.2997850    0.00000       Uiso       1.00
      H205          H  0.5022081  0.3097853  0.3161999    0.00000       Uiso       1.00
      H206          H  0.5421548  0.2222268  0.2935576    0.00000       Uiso       1.00
        B7          B  0.6024518  0.1437154  0.3431654    0.00000       Uiso       1.00
       O13          O  0.5127137  0.2588990  0.2751134    0.00000       Uiso       1.00
       O14          O  0.5451842  0.2932961  0.3821997    0.00000       Uiso       1.00
      C577          C  0.5335521  0.2753720  0.3363631    0.00000       Uiso       1.00
      C578          C  0.5485305  0.2549104  0.3468996    0.00000       Uiso       1.00
      C579          C  0.5294976  0.3047400  0.3562070    0.00000       Uiso       1.00
      C580          C  0.5426397  0.2853758  0.3672046    0.00000       Uiso       1.00
      C581          C  0.5522923  0.2605934  0.3629966    0.00000       Uiso       1.00
      C582          C  0.5246793  0.3004550  0.3409077    0.00000       Uiso       1.00
      H207          H  0.5621263  0.2466711  0.3727472    0.00000       Uiso       1.00
      H208          H  0.5144213  0.3169196  0.3328645    0.00000       Uiso       1.00
        B8          B  0.4961054  0.2855569  0.2726248    0.00000       Uiso       1.00
       O15          O  0.5217007  0.3281164  0.3622788    0.00000       Uiso       1.00
       O16          O  0.5885698  0.1542353  0.3297831    0.00000       Uiso       1.00
      C583          C  0.5590090  0.2295980  0.3414283    0.00000       Uiso       1.00
      C584          C  0.5534999  0.2245515  0.3264649    0.00000       Uiso       1.00
      C585          C  0.5843470  0.1844561  0.3454613    0.00000       Uiso       1.00
      C586          C  0.5781010  0.1796857  0.3323334    0.00000       Uiso       1.00
      C587          C  0.5629461  0.1990194  0.3226989    0.00000       Uiso       1.00
      C588          C  0.5752440  0.2088485  0.3502828    0.00000       Uiso       1.00
      H209          H  0.5588405  0.1933613  0.3128750    0.00000       Uiso       1.00
      H210          H  0.5814701  0.2106822  0.3605288    0.00000       Uiso       1.00
        B9          B  0.5317819  0.3205507  0.3788677    0.00000       Uiso       1.00
       O17          O  0.5999492  0.1628104  0.3532411    0.00000       Uiso       1.00
       O18          O  0.4927611  0.3022887  0.2864992    0.00000       Uiso       1.00
      C589          C  0.0994974  0.7551478  0.6839945    0.00000       Uiso       1.00
      C590          C  0.1199622  0.7296406  0.6784818    0.00000       Uiso       1.00
      C591          C  0.0701120  0.7393728  0.7092994    0.00000       Uiso       1.00
      C592          C  0.0894777  0.7152413  0.7030501    0.00000       Uiso       1.00
      C593          C  0.1142702  0.7097936  0.6879092    0.00000       Uiso       1.00
      C594          C  0.0744046  0.7594793  0.7002144    0.00000       Uiso       1.00
      H211          H  0.1281926  0.6902161  0.6837995    0.00000       Uiso       1.00
      H212          H  0.0579384  0.7777746  0.7064418    0.00000       Uiso       1.00
       B10          B  0.0893317  0.8562861  0.6568341    0.00000       Uiso       1.00
       O19          O  0.0467254  0.7411023  0.7248860    0.00000       Uiso       1.00
       O20          O  0.2206791  0.7067054  0.6177999    0.00000       Uiso       1.00
      C595          C  0.1452864  0.7246295  0.6636364    0.00000       Uiso       1.00
      C596          C  0.1503398  0.7450910  0.6530999    0.00000       Uiso       1.00
      C597          C  0.1904437  0.6952615  0.6437926    0.00000       Uiso       1.00
      C598          C  0.1952193  0.7146258  0.6327950    0.00000       Uiso       1.00
      C599          C  0.1758815  0.7394081  0.6370030    0.00000       Uiso       1.00
      C600          C  0.1660413  0.6995465  0.6590918    0.00000       Uiso       1.00
      H213          H  0.1815438  0.7533304  0.6272525    0.00000       Uiso       1.00
      H214          H  0.1642046  0.6830819  0.6671350    0.00000       Uiso       1.00
       B11          B  0.0542864  0.7144445  0.7273746    0.00000       Uiso       1.00
       O21          O  0.2120952  0.6718851  0.6377208    0.00000       Uiso       1.00
       O22          O  0.0725874  0.8457661  0.6702164    0.00000       Uiso       1.00
      C601          C  0.1300344  0.7704035  0.6585712    0.00000       Uiso       1.00
      C602          C  0.1045154  0.7754500  0.6735346    0.00000       Uiso       1.00
      C603          C  0.1142634  0.8155454  0.6545382    0.00000       Uiso       1.00
      C604          C  0.0901192  0.8203158  0.6676661    0.00000       Uiso       1.00
      C605          C  0.0846635  0.8009821  0.6773006    0.00000       Uiso       1.00
      C606          C  0.1343744  0.7911530  0.6497167    0.00000       Uiso       1.00
      H215          H  0.0650759  0.8066401  0.6871244    0.00000       Uiso       1.00
      H216          H  0.1526802  0.7893192  0.6394708    0.00000       Uiso       1.00
       B12          B  0.2311995  0.6794509  0.6211319    0.00000       Uiso       1.00
       O23          O  0.1159999  0.8371910  0.6467584    0.00000       Uiso       1.00
       O24          O  0.0815483  0.6977127  0.7135002    0.00000       Uiso       1.00
      C607          C  0.1049655  0.7453167  0.1836226    0.00000       Uiso       1.00
      C608          C  0.0999003  0.7708319  0.1781472    0.00000       Uiso       1.00
      C609          C  0.0598121  0.7610546  0.2089506    0.00000       Uiso       1.00
      C610          C  0.0550239  0.7851954  0.2027365    0.00000       Uiso       1.00
      C611          C  0.0743537  0.7906651  0.1876037    0.00000       Uiso       1.00
      C612          C  0.0842191  0.7409615  0.1998361    0.00000       Uiso       1.00
      H217          H  0.0686814  0.8102485  0.1835226    0.00000       Uiso       1.00
      H218          H  0.0860662  0.7226571  0.2060368    0.00000       Uiso       1.00
       B13          B  0.1959921  0.6442182  0.1563143    0.00000       Uiso       1.00
       O25          O  0.0381676  0.7593023  0.2245346    0.00000       Uiso       1.00
       O26          O  0.1776209  0.7938558  0.1174989    0.00000       Uiso       1.00
      C613          C  0.1201988  0.7758648  0.1633092    0.00000       Uiso       1.00
      C614          C  0.1457210  0.7554186  0.1527427    0.00000       Uiso       1.00
      C615          C  0.1359523  0.8052617  0.1435083    0.00000       Uiso       1.00
      C616          C  0.1600981  0.7859136  0.1324823    0.00000       Uiso       1.00
      C617          C  0.1655638  0.7611251  0.1366541    0.00000       Uiso       1.00
      C618          C  0.1158490  0.8009544  0.1588012    0.00000       Uiso       1.00
      H219          H  0.1851515  0.7472171  0.1268833    0.00000       Uiso       1.00
      H220          H  0.0975417  0.8174071  0.1668685    0.00000       Uiso       1.00
       B14          B  0.0190530  0.7859566  0.2270621    0.00000       Uiso       1.00
       O27          O  0.1342057  0.8286470  0.1374707    0.00000       Uiso       1.00
       O28          O  0.1687299  0.6547186  0.1697120    0.00000       Uiso       1.00
      C619          C  0.1507506  0.7300982  0.1581770    0.00000       Uiso       1.00
      C620          C  0.1302928  0.7250298  0.1731330    0.00000       Uiso       1.00
      C621          C  0.1801516  0.6849623  0.1540780    0.00000       Uiso       1.00
      C622          C  0.1607909  0.6801726  0.1671989    0.00000       Uiso       1.00
      C623          C  0.1359944  0.6994923  0.1768616    0.00000       Uiso       1.00
      C624          C  0.1758489  0.7093617  0.1492922    0.00000       Uiso       1.00
      H221          H  0.1220762  0.6938199  0.1866772    0.00000       Uiso       1.00
      H222          H  0.1923121  0.7112104  0.1390490    0.00000       Uiso       1.00
       B15          B  0.1608692  0.8211055  0.1208708    0.00000       Uiso       1.00
       O29          O  0.2035439  0.6633280  0.1462666    0.00000       Uiso       1.00
       O30          O  0.0295608  0.8027086  0.2132123    0.00000       Uiso       1.00
      C625          C  0.6053980  0.8359617  0.7751315    0.00000       Uiso       1.00
      C626          C  0.6003219  0.8465282  0.7546854    0.00000       Uiso       1.00
      C627          C  0.5602475  0.8557627  0.8045285    0.00000       Uiso       1.00
      C628          C  0.5554498  0.8667886  0.7851804    0.00000       Uiso       1.00
      C629          C  0.5747725  0.8626168  0.7603919    0.00000       Uiso       1.00
      C630          C  0.5846581  0.8404697  0.8002211    0.00000       Uiso       1.00
      H223          H  0.5690930  0.8723876  0.7464839    0.00000       Uiso       1.00
      H224          H  0.5865126  0.8324024  0.8166740    0.00000       Uiso       1.00
       B16          B  0.6964520  0.7722088  0.7852234    0.00000       Uiso       1.00
       O31          O  0.5386088  0.8618003  0.8279138    0.00000       Uiso       1.00
       O32          O  0.6780132  0.8295588  0.6539854    0.00000       Uiso       1.00
      C631          C  0.6206127  0.8410939  0.7293650    0.00000       Uiso       1.00
      C632          C  0.6461389  0.8261378  0.7242967    0.00000       Uiso       1.00
      C633          C  0.6363478  0.8451928  0.6842291    0.00000       Uiso       1.00
      C634          C  0.6604981  0.8320719  0.6794395    0.00000       Uiso       1.00
      C635          C  0.6659749  0.8224092  0.6987591    0.00000       Uiso       1.00
      C636          C  0.6162511  0.8499786  0.7086285    0.00000       Uiso       1.00
      H225          H  0.6855656  0.8125936  0.6930867    0.00000       Uiso       1.00
      H226          H  0.5979391  0.8602219  0.7104772    0.00000       Uiso       1.00
       B17          B  0.5194868  0.8784001  0.8203722    0.00000       Uiso       1.00
       O33          O  0.6345897  0.8530042  0.6625948    0.00000       Uiso       1.00
       O34          O  0.6691922  0.7860587  0.8019755    0.00000       Uiso       1.00
      C637          C  0.6511794  0.8156483  0.7445835    0.00000       Uiso       1.00
      C638          C  0.6307293  0.8211237  0.7700987    0.00000       Uiso       1.00
      C639          C  0.6805949  0.7903203  0.7603214    0.00000       Uiso       1.00
      C640          C  0.6612422  0.7965344  0.7844622    0.00000       Uiso       1.00
      C641          C  0.6364427  0.8116672  0.7899320    0.00000       Uiso       1.00
      C642          C  0.6762809  0.7994348  0.7402283    0.00000       Uiso       1.00
      H227          H  0.6225317  0.8157483  0.8095154    0.00000       Uiso       1.00
      H228          H  0.6927384  0.7932341  0.7219239    0.00000       Uiso       1.00
       B18          B  0.6612514  0.8429565  0.6434850    0.00000       Uiso       1.00
       O35          O  0.7039917  0.7747363  0.7585692    0.00000       Uiso       1.00
       O36          O  0.5299848  0.8817720  0.7931226    0.00000       Uiso       1.00
      C643          C  0.0382907  0.2706372  0.8410929    0.00000       Uiso       1.00
      C644          C  0.0277206  0.2757055  0.8261369    0.00000       Uiso       1.00
      C645          C  0.0184568  0.3157731  0.8451920    0.00000       Uiso       1.00
      C646          C  0.0074273  0.3205627  0.8320710    0.00000       Uiso       1.00
      C647          C  0.0116133  0.3012431  0.8224083    0.00000       Uiso       1.00
      C648          C  0.0337676  0.2913737  0.8499777    0.00000       Uiso       1.00
      H229          H  0.0018383  0.3069155  0.8125926    0.00000       Uiso       1.00
      H230          H  0.0418362  0.2895251  0.8602210    0.00000       Uiso       1.00
       B19          B  0.1021103  0.1796300  0.8783992    0.00000       Uiso       1.00
       O37          O  0.0124034  0.3374074  0.8530033    0.00000       Uiso       1.00
       O38          O  0.0447467  0.1980267  0.7860576    0.00000       Uiso       1.00
      C649          C  0.0331697  0.2554187  0.8156472    0.00000       Uiso       1.00
      C650          C  0.0481444  0.2299034  0.8211227    0.00000       Uiso       1.00
      C651          C  0.0290823  0.2396807  0.7903192    0.00000       Uiso       1.00
      C652          C  0.0422208  0.2155399  0.7965333    0.00000       Uiso       1.00
      C653          C  0.0518876  0.2100702  0.8116661    0.00000       Uiso       1.00
      C654          C  0.0242817  0.2597738  0.7994338    0.00000       Uiso       1.00
      H231          H  0.0617175  0.1904868  0.8157473    0.00000       Uiso       1.00
      H232          H  0.0140251  0.2780782  0.7932330    0.00000       Uiso       1.00
       B20          B  0.9957890  0.3565172  0.8429556    0.00000       Uiso       1.00
       O39          O  0.0212696  0.2414330  0.7747352    0.00000       Uiso       1.00
       O40          O  0.0882405  0.2068796  0.8817711    0.00000       Uiso       1.00
      C655          C  0.0586377  0.2248706  0.8359607    0.00000       Uiso       1.00
      C656          C  0.0531473  0.2453168  0.8465272    0.00000       Uiso       1.00
      C657          C  0.0839872  0.1954737  0.8557616    0.00000       Uiso       1.00
      C658          C  0.0777589  0.2148219  0.8667877    0.00000       Uiso       1.00
      C659          C  0.0626080  0.2396103  0.8626159    0.00000       Uiso       1.00
      C660          C  0.0748696  0.1997810  0.8404687    0.00000       Uiso       1.00
      H233          H  0.0585167  0.2535184  0.8723868    0.00000       Uiso       1.00
      H234          H  0.0810823  0.1833282  0.8324015    0.00000       Uiso       1.00
       B21          B  0.0313368  0.2147787  0.7722077    0.00000       Uiso       1.00
       O41          O  0.0995883  0.1720884  0.8617993    0.00000       Uiso       1.00
       O42          O  0.9924248  0.3460167  0.8295580    0.00000       Uiso       1.00
      C661          C  0.2164905  0.1640409  0.2248692    0.00000       Uiso       1.00
      C662          C  0.2015347  0.1534745  0.2453153    0.00000       Uiso       1.00
      C663          C  0.2205380  0.1442400  0.1954723    0.00000       Uiso       1.00
      C664          C  0.2074181  0.1332141  0.2148204    0.00000       Uiso       1.00
      C665          C  0.1977805  0.1373859  0.2396088    0.00000       Uiso       1.00
      C666          C  0.2253482  0.1595330  0.1997796    0.00000       Uiso       1.00
      H235          H  0.1879638  0.1276150  0.2535169    0.00000       Uiso       1.00
      H236          H  0.2355883  0.1676002  0.1833268    0.00000       Uiso       1.00
       B22          B  0.2538832  0.2277940  0.2147775    0.00000       Uiso       1.00
       O43          O  0.2283221  0.1382024  0.1720870    0.00000       Uiso       1.00
       O44          O  0.1615566  0.1704438  0.3460154    0.00000       Uiso       1.00
      C667          C  0.1910708  0.1589088  0.2706358    0.00000       Uiso       1.00
      C668          C  0.1965726  0.1738649  0.2757041    0.00000       Uiso       1.00
      C669          C  0.1657688  0.1548098  0.3157717    0.00000       Uiso       1.00
      C670          C  0.1720086  0.1679308  0.3205613    0.00000       Uiso       1.00
      C671          C  0.1871424  0.1775935  0.3012417    0.00000       Uiso       1.00
      C672          C  0.1748574  0.1500240  0.2913723    0.00000       Uiso       1.00
      H237          H  0.1912449  0.1874091  0.3069142    0.00000       Uiso       1.00
      H238          H  0.1686375  0.1397807  0.2895236    0.00000       Uiso       1.00
       B23          B  0.2182586  0.1216024  0.1796284    0.00000       Uiso       1.00
       O45          O  0.1501879  0.1469985  0.3374059    0.00000       Uiso       1.00
       O46          O  0.2572253  0.2139441  0.1980255    0.00000       Uiso       1.00
      C673          C  0.2114104  0.1843545  0.2554173    0.00000       Uiso       1.00
      C674          C  0.2219509  0.1788790  0.2299021    0.00000       Uiso       1.00
      C675          C  0.2312357  0.2096825  0.2396795    0.00000       Uiso       1.00
      C676          C  0.2422379  0.2034684  0.2155387    0.00000       Uiso       1.00
      C677          C  0.2380410  0.1883355  0.2100689    0.00000       Uiso       1.00
      C678          C  0.2159431  0.2005680  0.2597726    0.00000       Uiso       1.00
      H239          H  0.2477945  0.1842544  0.1904855    0.00000       Uiso       1.00
      H240          H  0.2078954  0.2067687  0.2780769    0.00000       Uiso       1.00
       B24          B  0.1476920  0.1570462  0.3565158    0.00000       Uiso       1.00
       O47          O  0.2372962  0.2252665  0.2414317    0.00000       Uiso       1.00
       O48          O  0.2048788  0.1182306  0.2068781    0.00000       Uiso       1.00
