data_14
_audit_creation_date              0000-00-00
_audit_creation_method            'LanYouShi'
_symmetry_space_group_name_H-M    'P1'
_cell_length_a                    54.1212997
_cell_length_b                    54.1212997
_cell_length_c                    54.1212997
_cell_angle_alpha                 70.5848007
_cell_angle_beta                  70.5440979
_cell_angle_gamma                 109.5019989
loop_
_atom_site_label
_atom_site_type_symbol
_atom_site_fract_x
_atom_site_fract_y
_atom_site_fract_z
_atom_site_U_iso_or_equiv
_atom_site_adp_type
_atom_site_occupancy
        C1          C  0.4999998  0.4999995  0.5000001    0.00000       Uiso       1.00
        C2          C  0.5419648  0.3575019  0.4029276    0.00000       Uiso       1.00
        C3          C  0.5276552  0.3745589  0.3967108    0.00000       Uiso       1.00
        C4          C  0.5165387  0.3737832  0.3765080    0.00000       Uiso       1.00
        C5          C  0.5200333  0.3564749  0.3623716    0.00000       Uiso       1.00
        C6          C  0.5346730  0.3396910  0.3683155    0.00000       Uiso       1.00
        C7          C  0.5456102  0.3402942  0.3886833    0.00000       Uiso       1.00
        H1          H  0.5502786  0.3572747  0.4187980    0.00000       Uiso       1.00
        H2          H  0.5568392  0.3273749  0.3937558    0.00000       Uiso       1.00
        H3          H  0.5051449  0.3865805  0.3716940    0.00000       Uiso       1.00
        C8          C  0.5757101  0.4724457  0.6529678    0.00000       Uiso       1.00
        C9          C  0.5551993  0.4581705  0.6843218    0.00000       Uiso       1.00
       C10          C  0.6070242  0.4835417  0.6426219    0.00000       Uiso       1.00
       C11          C  0.6176765  0.4800608  0.6634074    0.00000       Uiso       1.00
       C12          C  0.5971085  0.4654555  0.6948183    0.00000       Uiso       1.00
       C13          C  0.5658086  0.4545389  0.7051573    0.00000       Uiso       1.00
        H4          H  0.5310195  0.4498733  0.6928664    0.00000       Uiso       1.00
        H5          H  0.5495192  0.4433367  0.7292960    0.00000       Uiso       1.00
        H6          H  0.6232199  0.4949089  0.6184405    0.00000       Uiso       1.00
       C14          C  0.2713735  0.4244693  0.6032892    0.00000       Uiso       1.00
       C15          C  0.2605271  0.4449895  0.5970726    0.00000       Uiso       1.00
       C16          C  0.2504153  0.3931702  0.6234921    0.00000       Uiso       1.00
       C17          C  0.2189847  0.3825425  0.6376286    0.00000       Uiso       1.00
       C18          C  0.2081387  0.4031202  0.6316847    0.00000       Uiso       1.00
       C19          C  0.2290895  0.4344049  0.6113167    0.00000       Uiso       1.00
        H7          H  0.2761544  0.4691577  0.5812021    0.00000       Uiso       1.00
        H8          H  0.2212376  0.4507013  0.6062443    0.00000       Uiso       1.00
        H9          H  0.2584034  0.3769672  0.6283061    0.00000       Uiso       1.00
       C20          C  0.6252605  0.7285241  0.3470324    0.00000       Uiso       1.00
       C21          C  0.6423079  0.7393360  0.3156784    0.00000       Uiso       1.00
       C22          C  0.6260210  0.7495028  0.3573782    0.00000       Uiso       1.00
       C23          C  0.6433048  0.7809197  0.3365928    0.00000       Uiso       1.00
       C24          C  0.6600789  0.7917312  0.3051818    0.00000       Uiso       1.00
       C25          C  0.6594909  0.7707599  0.2948429    0.00000       Uiso       1.00
       H10          H  0.6425467  0.7236921  0.3071337    0.00000       Uiso       1.00
       H11          H  0.6724033  0.7785851  0.2707041    0.00000       Uiso       1.00
       H12          H  0.6132311  0.7415414  0.3815596    0.00000       Uiso       1.00
       Cl1         Cl  0.6566855  0.4940330  0.6497189    0.00000       Uiso       1.00
       Cl2         Cl  0.1936767  0.3435518  0.6626460    0.00000       Uiso       1.00
       Cl3         Cl  0.6436023  0.8062539  0.3502813    0.00000       Uiso       1.00
       Cl4         Cl  0.5060349  0.3561592  0.3373542    0.00000       Uiso       1.00
       C26          C  0.5139058  0.4001647  0.4555894    0.00000       Uiso       1.00
       C27          C  0.5155755  0.4278592  0.4400887    0.00000       Uiso       1.00
       C28          C  0.5214832  0.4378662  0.4101207    0.00000       Uiso       1.00
       C29          C  0.5256999  0.4208596  0.3960604    0.00000       Uiso       1.00
       C30          C  0.5237281  0.3929814  0.4116660    0.00000       Uiso       1.00
       C31          C  0.5177539  0.3829058  0.4416948    0.00000       Uiso       1.00
       H13          H  0.5099582  0.3920375  0.4784364    0.00000       Uiso       1.00
       H14          H  0.5156930  0.3614801  0.4546563    0.00000       Uiso       1.00
       H15          H  0.5225136  0.4587952  0.3976092    0.00000       Uiso       1.00
       H16          H  0.5308047  0.4297554  0.3727937    0.00000       Uiso       1.00
       C32          C  0.5443791  0.4844814  0.5876423    0.00000       Uiso       1.00
       C33          C  0.5305614  0.4861852  0.6136617    0.00000       Uiso       1.00
       C34          C  0.5684373  0.4785543  0.5835301    0.00000       Uiso       1.00
       C35          C  0.5782915  0.4743520  0.6047356    0.00000       Uiso       1.00
       C36          C  0.5646709  0.4763578  0.6306368    0.00000       Uiso       1.00
       C37          C  0.5406184  0.4823513  0.6347511    0.00000       Uiso       1.00
       H17          H  0.5116642  0.4901485  0.6178507    0.00000       Uiso       1.00
       H18          H  0.5297276  0.4844383  0.6541127    0.00000       Uiso       1.00
       H19          H  0.5799082  0.4774975  0.5636353    0.00000       Uiso       1.00
       H20          H  0.5964515  0.4692317  0.6009349    0.00000       Uiso       1.00
       C38          C  0.3680083  0.4557242  0.5599115    0.00000       Uiso       1.00
       C39          C  0.3557989  0.4695394  0.5444108    0.00000       Uiso       1.00
       C40          C  0.3480773  0.4316939  0.5898796    0.00000       Uiso       1.00
       C41          C  0.3170245  0.4218642  0.6039398    0.00000       Uiso       1.00
       C42          C  0.3047362  0.4354823  0.5883342    0.00000       Uiso       1.00
       C43          C  0.3246594  0.4595069  0.5583053    0.00000       Uiso       1.00
       H21          H  0.3704957  0.4884160  0.5215639    0.00000       Uiso       1.00
       H22          H  0.3161821  0.4703944  0.5453439    0.00000       Uiso       1.00
       H23          H  0.3565075  0.4202254  0.6023910    0.00000       Uiso       1.00
       H24          H  0.3026770  0.4037257  0.6272064    0.00000       Uiso       1.00
       C44          C  0.5720362  0.6319332  0.4123579    0.00000       Uiso       1.00
       C45          C  0.5997331  0.6441087  0.3863383    0.00000       Uiso       1.00
       C46          C  0.5620013  0.6518833  0.4164704    0.00000       Uiso       1.00
       C47          C  0.5789832  0.6829218  0.3952648    0.00000       Uiso       1.00
       C48          C  0.6068640  0.6951763  0.3693634    0.00000       Uiso       1.00
       C49          C  0.6169675  0.6752340  0.3652488    0.00000       Uiso       1.00
       H25          H  0.6078809  0.6293961  0.3821491    0.00000       Uiso       1.00
       H26          H  0.6383964  0.6836853  0.3458871    0.00000       Uiso       1.00
       H27          H  0.5410699  0.6434795  0.4363654    0.00000       Uiso       1.00
       H28          H  0.5700660  0.6972848  0.3990657    0.00000       Uiso       1.00
       C50          C  0.4876669  0.4497570  0.4999045    0.00000       Uiso       1.00
       C51          C  0.5045792  0.4817465  0.4834035    0.00000       Uiso       1.00
       C52          C  0.5238814  0.4954485  0.4518982    0.00000       Uiso       1.00
       C53          C  0.5275962  0.4781139  0.4381379    0.00000       Uiso       1.00
       C54          C  0.5114259  0.4463236  0.4549744    0.00000       Uiso       1.00
       C55          C  0.4911009  0.4324076  0.4860596    0.00000       Uiso       1.00
       H29          H  0.4774533  0.4080173  0.4997192    0.00000       Uiso       1.00
       H30          H  0.5362801  0.5196285  0.4372981    0.00000       Uiso       1.00
       H31          H  0.5435163  0.4898070  0.4141728    0.00000       Uiso       1.00
       C56          C  0.5120283  0.4954344  0.5228128    0.00000       Uiso       1.00
       C57          C  0.5124474  0.5123703  0.5378906    0.00000       Uiso       1.00
       C58          C  0.5242337  0.4761217  0.5283947    0.00000       Uiso       1.00
       C59          C  0.5342897  0.4724210  0.5494267    0.00000       Uiso       1.00
       C60          C  0.5336316  0.4886157  0.5650471    0.00000       Uiso       1.00
       C61          C  0.5228686  0.5089502  0.5586566    0.00000       Uiso       1.00
       H32          H  0.5228623  0.5226155  0.5694007    0.00000       Uiso       1.00
       H33          H  0.5264288  0.4637036  0.5166122    0.00000       Uiso       1.00
       H34          H  0.5423365  0.4564930  0.5536397    0.00000       Uiso       1.00
       C62          C  0.4651669  0.4879991  0.5165967    0.00000       Uiso       1.00
       C63          C  0.4496620  0.4875715  0.5000957    0.00000       Uiso       1.00
       C64          C  0.4473954  0.4758277  0.5481020    0.00000       Uiso       1.00
       C65          C  0.4163142  0.4657960  0.5618623    0.00000       Uiso       1.00
       C66          C  0.4013436  0.4664455  0.5450258    0.00000       Uiso       1.00
       C67          C  0.4184816  0.4771745  0.5139406    0.00000       Uiso       1.00
       H35          H  0.4077371  0.4771730  0.5002810    0.00000       Uiso       1.00
       H36          H  0.4569899  0.4736411  0.5627019    0.00000       Uiso       1.00
       H37          H  0.4040663  0.4577751  0.5858274    0.00000       Uiso       1.00
       C68          C  0.5182247  0.5348178  0.4771874    0.00000       Uiso       1.00
       C69          C  0.5502232  0.5502993  0.4621090    0.00000       Uiso       1.00
       C70          C  0.5044883  0.5525997  0.4716065    0.00000       Uiso       1.00
       C71          C  0.5217986  0.5836667  0.4505745    0.00000       Uiso       1.00
       C72          C  0.5535979  0.5986131  0.4349532    0.00000       Uiso       1.00
       C73          C  0.5675484  0.5814658  0.4413428    0.00000       Uiso       1.00
       H38          H  0.5919471  0.5921925  0.4305981    0.00000       Uiso       1.00
       H39          H  0.4802996  0.5430244  0.4833896    0.00000       Uiso       1.00
       H40          H  0.5100793  0.5959224  0.4463623    0.00000       Uiso       1.00
       Cl5         Cl  0.4619345  0.4309080  0.5389082    0.00000       Uiso       1.00
       Cl6         Cl  0.4697776  0.5008039  0.4610919    0.00000       Uiso       1.00
       Cl7         Cl  0.5691147  0.5301709  0.4689687    0.00000       Uiso       1.00
       Cl8         Cl  0.4991729  0.5381156  0.5310300    0.00000       Uiso       1.00
       C74          C  0.7504001  0.1258404  0.3746719    0.00000       Uiso       1.00
       C75          C  0.6959357  0.0291190  0.6138822    0.00000       Uiso       1.00
       C76          C  0.6753548  0.0228256  0.6030954    0.00000       Uiso       1.00
       C77          C  0.6440620  0.0025836  0.6240854    0.00000       Uiso       1.00
       C78          C  0.6335012  0.9884840  0.6554886    0.00000       Uiso       1.00
       C79          C  0.6541398  0.9945047  0.6662750    0.00000       Uiso       1.00
       C80          C  0.6854175  0.0149120  0.6452925    0.00000       Uiso       1.00
       H41          H  0.7201006  0.0450208  0.5982295    0.00000       Uiso       1.00
       H42          H  0.7017602  0.0200437  0.6530983    0.00000       Uiso       1.00
       H43          H  0.6278130  0.9977100  0.6161434    0.00000       Uiso       1.00
       C81          C  0.9789523  0.2791516  0.2491352    0.00000       Uiso       1.00
       C82          C  0.9897362  0.3104988  0.2320922    0.00000       Uiso       1.00
       C83          C  0.9999619  0.2688595  0.2483324    0.00000       Uiso       1.00
       C84          C  0.0313829  0.2896921  0.2310108    0.00000       Uiso       1.00
       C85          C  0.0421671  0.3210968  0.2142406    0.00000       Uiso       1.00
       C86          C  0.0211644  0.3313816  0.2148712    0.00000       Uiso       1.00
       H44          H  0.9740672  0.3190016  0.2318861    0.00000       Uiso       1.00
       H45          H  0.0289678  0.3555143  0.2019629    0.00000       Uiso       1.00
       H46          H  0.9920217  0.2446836  0.2611188    0.00000       Uiso       1.00
       C87          C  0.6246897  0.2287411  0.3473195    0.00000       Uiso       1.00
       C88          C  0.6075684  0.2224497  0.3330676    0.00000       Uiso       1.00
       C89          C  0.6239423  0.2489649  0.3584202    0.00000       Uiso       1.00
       C90          C  0.6065975  0.2630484  0.3549669    0.00000       Uiso       1.00
       C91          C  0.5897486  0.2570299  0.3403848    0.00000       Uiso       1.00
       C92          C  0.5903240  0.2366409  0.3294636    0.00000       Uiso       1.00
       H47          H  0.6073188  0.2065614  0.3247674    0.00000       Uiso       1.00
       H48          H  0.5773548  0.2315111  0.3182790    0.00000       Uiso       1.00
       H49          H  0.6367896  0.2538363  0.3697697    0.00000       Uiso       1.00
       C93          C  0.7226039  0.9726428  0.2991374    0.00000       Uiso       1.00
       C94          C  0.7083605  0.9412937  0.3196455    0.00000       Uiso       1.00
       C95          C  0.7336347  0.9829530  0.2678495    0.00000       Uiso       1.00
       C96          C  0.7301202  0.9621363  0.2572212    0.00000       Uiso       1.00
       C97          C  0.7155463  0.9307294  0.2777871    0.00000       Uiso       1.00
       C98          C  0.7046952  0.9204265  0.3090603    0.00000       Uiso       1.00
       H50          H  0.7001141  0.9327772  0.3438045    0.00000       Uiso       1.00
       H51          H  0.6935184  0.8962920  0.3253473    0.00000       Uiso       1.00
       H52          H  0.7449763  0.0071311  0.2516557    0.00000       Uiso       1.00
       Cl9         Cl  0.0567561  0.2760698  0.2306614    0.00000       Uiso       1.00
      Cl10         Cl  0.6063184  0.2880940  0.3689440    0.00000       Uiso       1.00
      Cl11         Cl  0.7440114  0.9757808  0.2182445    0.00000       Uiso       1.00
      Cl12         Cl  0.5945160  0.9634162  0.6808376    0.00000       Uiso       1.00
       C99          C  0.7202727  0.0816481  0.5187094    0.00000       Uiso       1.00
      C100          C  0.7064033  0.0660857  0.5065478    0.00000       Uiso       1.00
      C101          C  0.6823880  0.0360955  0.5264971    0.00000       Uiso       1.00
      C102          C  0.6726251  0.0220737  0.5575215    0.00000       Uiso       1.00
      C103          C  0.6862971  0.0377407  0.5697622    0.00000       Uiso       1.00
      C104          C  0.7103066  0.0677916  0.5498207    0.00000       Uiso       1.00
       H53          H  0.7391400  0.1045144  0.5039966    0.00000       Uiso       1.00
       H54          H  0.7212337  0.0807994  0.5582621    0.00000       Uiso       1.00
       H55          H  0.6708793  0.0235363  0.5181041    0.00000       Uiso       1.00
       H56          H  0.6544966  0.9987887  0.5718840    0.00000       Uiso       1.00
      C105          C  0.8823505  0.2136815  0.3024758    0.00000       Uiso       1.00
      C106          C  0.8944721  0.2396756  0.2747970    0.00000       Uiso       1.00
      C107          C  0.9023582  0.2096427  0.3124538    0.00000       Uiso       1.00
      C108          C  0.9334007  0.2308950  0.2954343    0.00000       Uiso       1.00
      C109          C  0.9456008  0.2567707  0.2675718    0.00000       Uiso       1.00
      C110          C  0.9256006  0.2608115  0.2575252    0.00000       Uiso       1.00
       H57          H  0.8797150  0.2438088  0.2666921    0.00000       Uiso       1.00
       H58          H  0.9340087  0.2801509  0.2361123    0.00000       Uiso       1.00
       H59          H  0.8939964  0.1897691  0.3333700    0.00000       Uiso       1.00
       H60          H  0.9478097  0.2271506  0.3043078    0.00000       Uiso       1.00
      C111          C  0.6781057  0.1855291  0.3592696    0.00000       Uiso       1.00
      C112          C  0.6503721  0.1699588  0.3609941    0.00000       Uiso       1.00
      C113          C  0.6881129  0.2155113  0.3533505    0.00000       Uiso       1.00
      C114          C  0.6710684  0.2295179  0.3491758    0.00000       Uiso       1.00
      C115          C  0.6431516  0.2138428  0.3512023    0.00000       Uiso       1.00
      C116          C  0.6330760  0.1837997  0.3571879    0.00000       Uiso       1.00
       H61          H  0.6422426  0.1470985  0.3649522    0.00000       Uiso       1.00
       H62          H  0.6116221  0.1707860  0.3592899    0.00000       Uiso       1.00
       H63          H  0.7090719  0.2280758  0.3522784    0.00000       Uiso       1.00
       H64          H  0.6799646  0.2527975  0.3440607    0.00000       Uiso       1.00
      C117          C  0.7347407  0.0380653  0.3303942    0.00000       Uiso       1.00
      C118          C  0.7364830  0.0120787  0.3441871    0.00000       Uiso       1.00
      C119          C  0.7287413  0.0421123  0.3063858    0.00000       Uiso       1.00
      C120          C  0.7245063  0.0208752  0.2965558    0.00000       Uiso       1.00
      C121          C  0.7265514  0.9950070  0.3101512    0.00000       Uiso       1.00
      C122          C  0.7326173  0.9909581  0.3341538    0.00000       Uiso       1.00
       H65          H  0.7405021  0.0079392  0.3630467    0.00000       Uiso       1.00
       H66          H  0.7347360  0.9716245  0.3450234    0.00000       Uiso       1.00
       H67          H  0.7276530  0.0619807  0.2949348    0.00000       Uiso       1.00
       H68          H  0.7193303  0.0246249  0.2784348    0.00000       Uiso       1.00
      C123          C  0.7380850  0.1258163  0.4249565    0.00000       Uiso       1.00
      C124          C  0.7384726  0.1092843  0.4094749    0.00000       Uiso       1.00
      C125          C  0.7263289  0.0777837  0.4272439    0.00000       Uiso       1.00
      C126          C  0.7163635  0.0640613  0.4582969    0.00000       Uiso       1.00
      C127          C  0.7170534  0.0809307  0.4732427    0.00000       Uiso       1.00
      C128          C  0.7277540  0.1120086  0.4561094    0.00000       Uiso       1.00
       H69          H  0.7277807  0.1256904  0.4668370    0.00000       Uiso       1.00
       H70          H  0.7241134  0.0631580  0.4176689    0.00000       Uiso       1.00
       H71          H  0.7083623  0.0401005  0.4705422    0.00000       Uiso       1.00
      C129          C  0.7852249  0.1487072  0.3564036    0.00000       Uiso       1.00
      C130          C  0.8006464  0.1637595  0.3244234    0.00000       Uiso       1.00
      C131          C  0.8030707  0.1543645  0.3700817    0.00000       Uiso       1.00
      C132          C  0.8341407  0.1754426  0.3527343    0.00000       Uiso       1.00
      C133          C  0.8490269  0.1910365  0.3209540    0.00000       Uiso       1.00
      C134          C  0.8318161  0.1845719  0.3070610    0.00000       Uiso       1.00
       H72          H  0.8424954  0.1952937  0.2826784    0.00000       Uiso       1.00
       H73          H  0.7935439  0.1426069  0.3942522    0.00000       Uiso       1.00
       H74          H  0.8464465  0.1797123  0.3644098    0.00000       Uiso       1.00
      C135          C  0.7321065  0.1423793  0.3701372    0.00000       Uiso       1.00
      C136          C  0.7001114  0.1258288  0.3870890    0.00000       Uiso       1.00
      C137          C  0.7457791  0.1738807  0.3508370    0.00000       Uiso       1.00
      C138          C  0.7284075  0.1875876  0.3471638    0.00000       Uiso       1.00
      C139          C  0.6966100  0.1707007  0.3633744    0.00000       Uiso       1.00
      C140          C  0.6827258  0.1396208  0.3836962    0.00000       Uiso       1.00
       H75          H  0.6583332  0.1259252  0.3973728    0.00000       Uiso       1.00
       H76          H  0.7699642  0.1885188  0.3384076    0.00000       Uiso       1.00
       H77          H  0.7400770  0.2115505  0.3312445    0.00000       Uiso       1.00
      C141          C  0.7457962  0.1029907  0.3626717    0.00000       Uiso       1.00
      C142          C  0.7627569  0.0879561  0.3622191    0.00000       Uiso       1.00
      C143          C  0.7264220  0.0973335  0.3505243    0.00000       Uiso       1.00
      C144          C  0.7226890  0.0762709  0.3404916    0.00000       Uiso       1.00
      C145          C  0.7389100  0.0606938  0.3411162    0.00000       Uiso       1.00
      C146          C  0.7593038  0.0671594  0.3518214    0.00000       Uiso       1.00
       H78          H  0.7729900  0.0564507  0.3518003    0.00000       Uiso       1.00
       H79          H  0.7139793  0.1090793  0.3483575    0.00000       Uiso       1.00
       H80          H  0.7067154  0.0719999  0.3324895    0.00000       Uiso       1.00
      Cl13         Cl  0.7512849  0.1648132  0.4048451    0.00000       Uiso       1.00
      Cl14         Cl  0.6813008  0.0868287  0.4128198    0.00000       Uiso       1.00
      Cl15         Cl  0.7885767  0.0949113  0.3754206    0.00000       Uiso       1.00
      Cl16         Cl  0.7804369  0.1568066  0.3056031    0.00000       Uiso       1.00
      C147          C  0.8744733  0.9998041  0.8745610    0.00000       Uiso       1.00
      C148          C  0.0588932  0.2392068  0.7321536    0.00000       Uiso       1.00
      C149          C  0.0275321  0.2283725  0.7492611    0.00000       Uiso       1.00
      C150          C  0.0171901  0.2493338  0.7485566    0.00000       Uiso       1.00
      C151          C  0.0379875  0.2807561  0.7312683    0.00000       Uiso       1.00
      C152          C  0.0694066  0.2915906  0.7144334    0.00000       Uiso       1.00
      C153          C  0.0797411  0.2706364  0.7149657    0.00000       Uiso       1.00
       H81          H  0.0674337  0.2235759  0.7318716    0.00000       Uiso       1.00
       H82          H  0.1038855  0.2784792  0.7020062    0.00000       Uiso       1.00
       H83          H  0.9930019  0.2413545  0.7613940    0.00000       Uiso       1.00
      C154          C  0.9777028  0.8744819  0.8464909    0.00000       Uiso       1.00
      C155          C  0.9714131  0.8573926  0.8322051    0.00000       Uiso       1.00
      C156          C  0.9979713  0.8737553  0.8575257    0.00000       Uiso       1.00
      C157          C  0.0121008  0.8564637  0.8539737    0.00000       Uiso       1.00
      C158          C  0.0060836  0.8396474  0.8393577    0.00000       Uiso       1.00
      C159          C  0.9856497  0.8402015  0.8285024    0.00000       Uiso       1.00
       H84          H  0.9554914  0.8571274  0.8239540    0.00000       Uiso       1.00
       H85          H  0.9805201  0.8272566  0.8172932    0.00000       Uiso       1.00
       H86          H  0.0028429  0.8865781  0.8689002    0.00000       Uiso       1.00
      C160          C  0.7209985  0.9718910  0.7994207    0.00000       Uiso       1.00
      C161          C  0.6896446  0.9575990  0.8199823    0.00000       Uiso       1.00
      C162          C  0.7312741  0.9829541  0.7681352    0.00000       Uiso       1.00
      C163          C  0.7104189  0.9794239  0.7575611    0.00000       Uiso       1.00
      C164          C  0.6790077  0.9648015  0.7781798    0.00000       Uiso       1.00
      C165          C  0.6687391  0.9539180  0.8094512    0.00000       Uiso       1.00
       H87          H  0.6811535  0.9493263  0.8441422    0.00000       Uiso       1.00
       H88          H  0.6446018  0.9427035  0.8257789    0.00000       Uiso       1.00
       H89          H  0.7554548  0.9943339  0.7519011    0.00000       Uiso       1.00
      C166          C  0.7716599  0.9244717  0.1030715    0.00000       Uiso       1.00
      C167          C  0.7779424  0.9450188  0.1139032    0.00000       Uiso       1.00
      C168          C  0.7514577  0.8931739  0.1240268    0.00000       Uiso       1.00
      C169          C  0.7373864  0.8825734  0.1554410    0.00000       Uiso       1.00
      C170          C  0.7433957  0.9031775  0.1662733    0.00000       Uiso       1.00
      C171          C  0.7637633  0.9344612  0.1453249    0.00000       Uiso       1.00
       H90          H  0.7938145  0.9691874  0.0982765    0.00000       Uiso       1.00
       H91          H  0.7688859  0.9507779  0.1531660    0.00000       Uiso       1.00
       H92          H  0.7465937  0.8769507  0.1160491    0.00000       Uiso       1.00
      Cl17         Cl  0.0372011  0.8562092  0.8678713    0.00000       Uiso       1.00
      Cl18         Cl  0.7240214  0.9933564  0.7185854    0.00000       Uiso       1.00
      Cl19         Cl  0.7123675  0.8435830  0.1807462    0.00000       Uiso       1.00
      Cl20         Cl  0.0243038  0.3060685  0.7310413    0.00000       Uiso       1.00
      C172          C  0.9881535  0.1439354  0.7747814    0.00000       Uiso       1.00
      C173          C  0.9621672  0.1317625  0.8025036    0.00000       Uiso       1.00
      C174          C  0.9581014  0.1517220  0.8125570    0.00000       Uiso       1.00
      C175          C  0.9793202  0.1827671  0.7955684    0.00000       Uiso       1.00
      C176          C  0.0051880  0.1950185  0.7676631    0.00000       Uiso       1.00
      C177          C  0.0092558  0.1750667  0.7575411    0.00000       Uiso       1.00
       H93          H  0.9923078  0.1292166  0.7666174    0.00000       Uiso       1.00
       H94          H  0.0285895  0.1835147  0.7360941    0.00000       Uiso       1.00
       H95          H  0.9382321  0.1433198  0.8335091    0.00000       Uiso       1.00
       H96          H  0.9755568  0.1971382  0.8044989    0.00000       Uiso       1.00
      C178          C  0.9343522  0.9277332  0.8587444    0.00000       Uiso       1.00
      C179          C  0.9188027  0.9000169  0.8604310    0.00000       Uiso       1.00
      C180          C  0.9643595  0.9377782  0.8527625    0.00000       Uiso       1.00
      C181          C  0.9784102  0.9207869  0.8484902    0.00000       Uiso       1.00
      C182          C  0.9627564  0.8928872  0.8504784    0.00000       Uiso       1.00
      C183          C  0.9326884  0.8827737  0.8565269    0.00000       Uiso       1.00
       H97          H  0.8959236  0.8918600  0.8644355    0.00000       Uiso       1.00
       H98          H  0.9196901  0.8613309  0.8586026    0.00000       Uiso       1.00
       H99          H  0.9769098  0.9587253  0.8517165    0.00000       Uiso       1.00
      H100          H  0.0017073  0.9297113  0.8433298    0.00000       Uiso       1.00
      C184          C  0.7865376  0.9840785  0.8305103    0.00000       Uiso       1.00
      C185          C  0.7605226  0.9857631  0.8443899    0.00000       Uiso       1.00
      C186          C  0.7905745  0.9781203  0.8064705    0.00000       Uiso       1.00
      C187          C  0.7693003  0.9738692  0.7966937    0.00000       Uiso       1.00
      C188          C  0.7434034  0.9758557  0.8103766    0.00000       Uiso       1.00
      C189          C  0.7393644  0.9818802  0.8344107    0.00000       Uiso       1.00
      H101          H  0.7563906  0.9897493  0.8632749    0.00000       Uiso       1.00
      H102          H  0.7200090  0.9839540  0.8453474    0.00000       Uiso       1.00
      H103          H  0.8104634  0.9770769  0.7949539    0.00000       Uiso       1.00
      H104          H  0.7730445  0.9687265  0.7785449    0.00000       Uiso       1.00
      C190          C  0.8148356  0.9556427  0.0064859    0.00000       Uiso       1.00
      C191          C  0.8304136  0.9695019  0.0186421    0.00000       Uiso       1.00
      C192          C  0.7848576  0.9315965  0.0264540    0.00000       Uiso       1.00
      C193          C  0.7708622  0.9217936  0.0574916    0.00000       Uiso       1.00
      C194          C  0.7865455  0.9354558  0.0697260    0.00000       Uiso       1.00
      C195          C  0.8165844  0.9594964  0.0497655    0.00000       Uiso       1.00
      H105          H  0.8532704  0.9883913  0.0039167    0.00000       Uiso       1.00
      H106          H  0.8296044  0.9704177  0.0582003    0.00000       Uiso       1.00
      H107          H  0.7722878  0.9200949  0.0180643    0.00000       Uiso       1.00
      H108          H  0.7475848  0.9036410  0.0718703    0.00000       Uiso       1.00
      C196          C  0.9123187  0.0500848  0.8243514    0.00000       Uiso       1.00
      C197          C  0.8973011  0.0346299  0.8563303    0.00000       Uiso       1.00
      C198          C  0.9029536  0.0524421  0.8700466    0.00000       Uiso       1.00
      C199          C  0.9239975  0.0835149  0.8527306    0.00000       Uiso       1.00
      C200          C  0.9395587  0.0984359  0.8209482    0.00000       Uiso       1.00
      C201          C  0.9330963  0.0812568  0.8070215    0.00000       Uiso       1.00
      H109          H  0.9437922  0.0919622  0.7826389    0.00000       Uiso       1.00
      H110          H  0.8912181  0.0428862  0.8942240    0.00000       Uiso       1.00
      H111          H  0.9282668  0.0957956  0.8644314    0.00000       Uiso       1.00
      C202          C  0.8910620  0.9815700  0.8699171    0.00000       Uiso       1.00
      C203          C  0.8745539  0.9495811  0.8868207    0.00000       Uiso       1.00
      C204          C  0.9225705  0.9952911  0.8505606    0.00000       Uiso       1.00
      C205          C  0.9363222  0.9779723  0.8467898    0.00000       Uiso       1.00
      C206          C  0.9194760  0.9461809  0.8629540    0.00000       Uiso       1.00
      C207          C  0.8883911  0.9322481  0.8833300    0.00000       Uiso       1.00
      H112          H  0.8747270  0.9078576  0.8969732    0.00000       Uiso       1.00
      H113          H  0.9371798  0.0194748  0.8381611    0.00000       Uiso       1.00
      H114          H  0.9602872  0.9896779  0.8308319    0.00000       Uiso       1.00
      C208          C  0.8515821  0.9951842  0.8626183    0.00000       Uiso       1.00
      C209          C  0.8364966  0.0120957  0.8622658    0.00000       Uiso       1.00
      C210          C  0.8459327  0.9758438  0.8504286    0.00000       Uiso       1.00
      C211          C  0.8248321  0.9720942  0.8404505    0.00000       Uiso       1.00
      C212          C  0.8092064  0.9882652  0.8411743    0.00000       Uiso       1.00
      C213          C  0.8156615  0.0086265  0.8519225    0.00000       Uiso       1.00
      H115          H  0.8049150  0.0222748  0.8519775    0.00000       Uiso       1.00
      H116          H  0.8577136  0.9634410  0.8481865    0.00000       Uiso       1.00
      H117          H  0.8205703  0.9561471  0.8324124    0.00000       Uiso       1.00
      C214          C  0.8579472  0.9878321  0.9093785    0.00000       Uiso       1.00
      C215          C  0.8745224  0.9874553  0.9248067    0.00000       Uiso       1.00
      C216          C  0.8264352  0.9756386  0.9272082    0.00000       Uiso       1.00
      C217          C  0.8127401  0.9656339  0.9582731    0.00000       Uiso       1.00
      C218          C  0.8296509  0.9663340  0.9731678    0.00000       Uiso       1.00
      C219          C  0.8607427  0.9770857  0.9559704    0.00000       Uiso       1.00
      H118          H  0.8744575  0.9771229  0.9666550    0.00000       Uiso       1.00
      H119          H  0.8117797  0.9734134  0.9176723    0.00000       Uiso       1.00
      H120          H  0.7887673  0.9575940  0.9705684    0.00000       Uiso       1.00
      Cl21         Cl  0.9053667  0.0299161  0.8054896    0.00000       Uiso       1.00
      Cl22         Cl  0.8434368  0.0378722  0.8755258    0.00000       Uiso       1.00
      Cl23         Cl  0.9135378  0.0007182  0.9046143    0.00000       Uiso       1.00
      Cl24         Cl  0.8355498  0.9307113  0.9126151    0.00000       Uiso       1.00
      C220          C  0.0006383  0.6251974  0.6253282    0.00000       Uiso       1.00
      C221          C  0.1428876  0.8097037  0.3861178    0.00000       Uiso       1.00
      C222          C  0.1258181  0.7783468  0.3969048    0.00000       Uiso       1.00
      C223          C  0.1265451  0.7680229  0.3759148    0.00000       Uiso       1.00
      C224          C  0.1438175  0.7888332  0.3445115    0.00000       Uiso       1.00
      C225          C  0.1606138  0.8202474  0.3337251    0.00000       Uiso       1.00
      C226          C  0.1600593  0.8305643  0.3547077    0.00000       Uiso       1.00
      H121          H  0.1431524  0.8182316  0.4017706    0.00000       Uiso       1.00
      H122          H  0.1729891  0.8547050  0.3469018    0.00000       Uiso       1.00
      H123          H  0.1137378  0.7438393  0.3838567    0.00000       Uiso       1.00
      C227          C  0.0285388  0.7283389  0.7508650    0.00000       Uiso       1.00
      C228          C  0.0428600  0.7220968  0.7679079    0.00000       Uiso       1.00
      C229          C  0.0174448  0.7485464  0.7516677    0.00000       Uiso       1.00
      C230          C  0.0209731  0.7626628  0.7689893    0.00000       Uiso       1.00
      C231          C  0.0356244  0.7566935  0.7857595    0.00000       Uiso       1.00
      C232          C  0.0465391  0.7363208  0.7851290    0.00000       Uiso       1.00
      H124          H  0.0511570  0.7062219  0.7681140    0.00000       Uiso       1.00
      H125          H  0.0577764  0.7312289  0.7980372    0.00000       Uiso       1.00
      H126          H  0.0060424  0.7533799  0.7388813    0.00000       Uiso       1.00
      C233          C  0.0762140  0.4721621  0.6526806    0.00000       Uiso       1.00
      C234          C  0.0556850  0.4408031  0.6669325    0.00000       Uiso       1.00
      C235          C  0.1075273  0.4825041  0.6415800    0.00000       Uiso       1.00
      C236          C  0.1181610  0.4617096  0.6450332    0.00000       Uiso       1.00
      C237          C  0.0975750  0.4302933  0.6596153    0.00000       Uiso       1.00
      C238          C  0.0662758  0.4199584  0.6705365    0.00000       Uiso       1.00
      H127          H  0.0315048  0.4322617  0.6752327    0.00000       Uiso       1.00
      H128          H  0.0499726  0.3958158  0.6817212    0.00000       Uiso       1.00
      H129          H  0.1237369  0.5066896  0.6302305    0.00000       Uiso       1.00
      C239          C  0.7719818  0.5219420  0.7008626    0.00000       Uiso       1.00
      C240          C  0.7611201  0.5281861  0.6803547    0.00000       Uiso       1.00
      C241          C  0.7510355  0.5017163  0.7321506    0.00000       Uiso       1.00
      C242          C  0.7196011  0.4875842  0.7427790    0.00000       Uiso       1.00
      C243          C  0.7087395  0.4935555  0.7222131    0.00000       Uiso       1.00
      C244          C  0.7296786  0.5139464  0.6909398    0.00000       Uiso       1.00
      H130          H  0.7767386  0.5440746  0.6561956    0.00000       Uiso       1.00
      H131          H  0.7218146  0.5190402  0.6746528    0.00000       Uiso       1.00
      H132          H  0.7590357  0.4968809  0.7483444    0.00000       Uiso       1.00
      Cl25         Cl  0.0070018  0.7876868  0.7693387    0.00000       Uiso       1.00
      Cl26         Cl  0.1571697  0.4753935  0.6310561    0.00000       Uiso       1.00
      Cl27         Cl  0.6943080  0.4625378  0.7817556    0.00000       Uiso       1.00
      Cl28         Cl  0.1440732  0.7751717  0.3191625    0.00000       Uiso       1.00
      C245          C  0.1003392  0.7389632  0.4812908    0.00000       Uiso       1.00
      C246          C  0.0726274  0.7129445  0.4934523    0.00000       Uiso       1.00
      C247          C  0.0625666  0.7088585  0.4735030    0.00000       Uiso       1.00
      C248          C  0.0795380  0.7300888  0.4424787    0.00000       Uiso       1.00
      C249          C  0.1074335  0.7559893  0.4302379    0.00000       Uiso       1.00
      C250          C  0.1175629  0.7600773  0.4501794    0.00000       Uiso       1.00
      H133          H  0.1085074  0.7431324  0.4960036    0.00000       Uiso       1.00
      H134          H  0.1390036  0.7794373  0.4417380    0.00000       Uiso       1.00
      H135          H  0.0416227  0.6889651  0.4818961    0.00000       Uiso       1.00
      H136          H  0.0706013  0.7263078  0.4281162    0.00000       Uiso       1.00
      C251          C  0.0163557  0.6850241  0.6975244    0.00000       Uiso       1.00
      C252          C  0.0146988  0.6694946  0.7252032    0.00000       Uiso       1.00
      C253          C  0.0222851  0.7150000  0.6875463    0.00000       Uiso       1.00
      C254          C  0.0265349  0.7290399  0.7045658    0.00000       Uiso       1.00
      C255          C  0.0245760  0.7134055  0.7324284    0.00000       Uiso       1.00
      C256          C  0.0185802  0.6833687  0.7424749    0.00000       Uiso       1.00
      H137          H  0.0107353  0.6466408  0.7333080    0.00000       Uiso       1.00
      H138          H  0.0165282  0.6703853  0.7638879    0.00000       Uiso       1.00
      H139          H  0.0233067  0.7275333  0.6666301    0.00000       Uiso       1.00
      H140          H  0.0316552  0.7523136  0.6956923    0.00000       Uiso       1.00
      C257          C  0.0449402  0.5375162  0.6407305    0.00000       Uiso       1.00
      C258          C  0.0310926  0.5115054  0.6390060    0.00000       Uiso       1.00
      C259          C  0.0690091  0.5416101  0.6466497    0.00000       Uiso       1.00
      C260          C  0.0788452  0.5203952  0.6508244    0.00000       Uiso       1.00
      C261          C  0.0651946  0.4945029  0.6487979    0.00000       Uiso       1.00
      C262          C  0.0411312  0.4904069  0.6428122    0.00000       Uiso       1.00
      H141          H  0.0121865  0.5073301  0.6350479    0.00000       Uiso       1.00
      H142          H  0.0302173  0.4710529  0.6407102    0.00000       Uiso       1.00
      H143          H  0.0805026  0.5614982  0.6477218    0.00000       Uiso       1.00
      H144          H  0.0970148  0.5241814  0.6559395    0.00000       Uiso       1.00
      C263          C  0.8686295  0.5653049  0.6696059    0.00000       Uiso       1.00
      C264          C  0.8564221  0.5808263  0.6558130    0.00000       Uiso       1.00
      C265          C  0.8486921  0.5353211  0.6936143    0.00000       Uiso       1.00
      C266          C  0.8176348  0.5212659  0.7034444    0.00000       Uiso       1.00
      C267          C  0.8053488  0.5368922  0.6898489    0.00000       Uiso       1.00
      C268          C  0.8252784  0.5669367  0.6658463    0.00000       Uiso       1.00
      H145          H  0.8711231  0.6036860  0.6369535    0.00000       Uiso       1.00
      H146          H  0.8168035  0.5799140  0.6549768    0.00000       Uiso       1.00
      H147          H  0.8571210  0.5227933  0.7050653    0.00000       Uiso       1.00
      H148          H  0.8032818  0.4979871  0.7215654    0.00000       Uiso       1.00
      C269          C  0.0508484  0.6631166  0.5750437    0.00000       Uiso       1.00
      C270          C  0.0188504  0.6480381  0.5905252    0.00000       Uiso       1.00
      C271          C  0.0051010  0.6536456  0.5727563    0.00000       Uiso       1.00
      C272          C  0.0224005  0.6747022  0.5417032    0.00000       Uiso       1.00
      C273          C  0.0542006  0.6903228  0.5267574    0.00000       Uiso       1.00
      C274          C  0.0681625  0.6839073  0.5438907    0.00000       Uiso       1.00
      H149          H  0.0925612  0.6946508  0.5331631    0.00000       Uiso       1.00
      H150          H  0.9809095  0.6418648  0.5823312    0.00000       Uiso       1.00
      H151          H  0.0106727  0.6789340  0.5294579    0.00000       Uiso       1.00
      C275          C  0.0052552  0.6417724  0.6435965    0.00000       Uiso       1.00
      C276          C  0.9883589  0.6252457  0.6755767    0.00000       Uiso       1.00
      C277          C  0.0245769  0.6732825  0.6299185    0.00000       Uiso       1.00
      C278          C  0.0283250  0.6870224  0.6472658    0.00000       Uiso       1.00
      C279          C  0.0121704  0.6701601  0.6790462    0.00000       Uiso       1.00
      C280          C  0.9918263  0.6390703  0.6929391    0.00000       Uiso       1.00
      H152          H  0.9781901  0.6253915  0.7173217    0.00000       Uiso       1.00
      H153          H  0.0369656  0.6879021  0.6057479    0.00000       Uiso       1.00
      H154          H  0.0442585  0.7109920  0.6355904    0.00000       Uiso       1.00
      C281          C  0.0126472  0.6023738  0.6298629    0.00000       Uiso       1.00
      C282          C  0.0130314  0.5873135  0.6129112    0.00000       Uiso       1.00
      C283          C  0.0248676  0.5967655  0.6491632    0.00000       Uiso       1.00
      C284          C  0.0349050  0.5757243  0.6528364    0.00000       Uiso       1.00
      C285          C  0.0342124  0.5601213  0.6366257    0.00000       Uiso       1.00
      C286          C  0.0234341  0.5665385  0.6163039    0.00000       Uiso       1.00
      H155          H  0.0234012  0.5558087  0.6026274    0.00000       Uiso       1.00
      H156          H  0.0270888  0.6085337  0.6615925    0.00000       Uiso       1.00
      H157          H  0.0429646  0.5714905  0.6687557    0.00000       Uiso       1.00
      C287          C  0.9658000  0.6086055  0.6373284    0.00000       Uiso       1.00
      C288          C  0.9503133  0.6251140  0.6377810    0.00000       Uiso       1.00
      C289          C  0.9480076  0.5770960  0.6494759    0.00000       Uiso       1.00
      C290          C  0.9169225  0.5633405  0.6595085    0.00000       Uiso       1.00
      C291          C  0.9019693  0.5801854  0.6588839    0.00000       Uiso       1.00
      C292          C  0.9191293  0.6112736  0.6481788    0.00000       Uiso       1.00
      H158          H  0.9083996  0.6249388  0.6481998    0.00000       Uiso       1.00
      H159          H  0.9575888  0.5624887  0.6516427    0.00000       Uiso       1.00
      H160          H  0.9046574  0.5393727  0.6675106    0.00000       Uiso       1.00
      Cl29         Cl  0.0697541  0.6562253  0.5951551    0.00000       Uiso       1.00
      Cl30         Cl  0.9997359  0.5942079  0.5871803    0.00000       Uiso       1.00
      Cl31         Cl  0.9704567  0.6641220  0.6245796    0.00000       Uiso       1.00
      Cl32         Cl  0.9626046  0.5862347  0.6943970    0.00000       Uiso       1.00
      C293          C  0.3749934  0.2496619  0.1254391    0.00000       Uiso       1.00
      C294          C  0.4721312  0.2918171  0.2678466    0.00000       Uiso       1.00
      C295          C  0.4783873  0.2775464  0.2507391    0.00000       Uiso       1.00
      C296          C  0.4986448  0.2665007  0.2514435    0.00000       Uiso       1.00
      C297          C  0.5127962  0.2700271  0.2687318    0.00000       Uiso       1.00
      C298          C  0.5068126  0.2846282  0.2855667    0.00000       Uiso       1.00
      C299          C  0.4863902  0.2954943  0.2850344    0.00000       Uiso       1.00
      H161          H  0.4562187  0.3000759  0.2681286    0.00000       Uiso       1.00
      H162          H  0.4812865  0.3066923  0.2979939    0.00000       Uiso       1.00
      H163          H  0.5034899  0.2551374  0.2386062    0.00000       Uiso       1.00
      C300          C  0.2216293  0.3248495  0.1535092    0.00000       Uiso       1.00
      C301          C  0.1902686  0.3042883  0.1677950    0.00000       Uiso       1.00
      C302          C  0.2319266  0.3561418  0.1424744    0.00000       Uiso       1.00
      C303          C  0.2110865  0.3667225  0.1460264    0.00000       Uiso       1.00
      C304          C  0.1796688  0.3461039  0.1606424    0.00000       Uiso       1.00
      C305          C  0.1693785  0.3148260  0.1714978    0.00000       Uiso       1.00
      H164          H  0.1817606  0.2801238  0.1760461    0.00000       Uiso       1.00
      H165          H  0.1452356  0.2984985  0.1827069    0.00000       Uiso       1.00
      H166          H  0.2561124  0.3723759  0.1311000    0.00000       Uiso       1.00
      C306          C  0.2720153  0.0211221  0.2005795    0.00000       Uiso       1.00
      C307          C  0.2782643  0.0103092  0.1800178    0.00000       Uiso       1.00
      C308          C  0.2518242  0.0001435  0.2318650    0.00000       Uiso       1.00
      C309          C  0.2377312  0.9687247  0.2424390    0.00000       Uiso       1.00
      C310          C  0.2437068  0.9579114  0.2218203    0.00000       Uiso       1.00
      C311          C  0.2640633  0.9788831  0.1905489    0.00000       Uiso       1.00
      H167          H  0.2941272  0.0259538  0.1558580    0.00000       Uiso       1.00
      H168          H  0.2691600  0.9710568  0.1742213    0.00000       Uiso       1.00
      H169          H  0.2469861  0.0081063  0.2480991    0.00000       Uiso       1.00
      C312          C  0.5279413  0.3751287  0.8969287    0.00000       Uiso       1.00
      C313          C  0.5593092  0.3922321  0.8860969    0.00000       Uiso       1.00
      C314          C  0.5175777  0.3758608  0.8759733    0.00000       Uiso       1.00
      C315          C  0.5383600  0.3931723  0.8445591    0.00000       Uiso       1.00
      C316          C  0.5697855  0.4100029  0.8337269    0.00000       Uiso       1.00
      C317          C  0.5801419  0.4094432  0.8546752    0.00000       Uiso       1.00
      H170          H  0.5678667  0.3924931  0.9017237    0.00000       Uiso       1.00
      H171          H  0.6042917  0.4223989  0.8468342    0.00000       Uiso       1.00
      H172          H  0.4933849  0.3630271  0.8839510    0.00000       Uiso       1.00
      Cl33         Cl  0.2247158  0.4057063  0.1321288    0.00000       Uiso       1.00
      Cl34         Cl  0.2127269  0.9433904  0.2814147    0.00000       Uiso       1.00
      Cl35         Cl  0.5246494  0.3934332  0.8192539    0.00000       Uiso       1.00
      Cl36         Cl  0.5378817  0.2561166  0.2689588    0.00000       Uiso       1.00
      C318          C  0.4194449  0.2636632  0.2252187    0.00000       Uiso       1.00
      C319          C  0.4349664  0.2653711  0.1974966    0.00000       Uiso       1.00
      C320          C  0.4649692  0.2713487  0.1874431    0.00000       Uiso       1.00
      C321          C  0.4790428  0.2755959  0.2044317    0.00000       Uiso       1.00
      C322          C  0.4634168  0.2735860  0.2323370    0.00000       Uiso       1.00
      C323          C  0.4333533  0.2675419  0.2424590    0.00000       Uiso       1.00
      H173          H  0.3965703  0.2596616  0.2333827    0.00000       Uiso       1.00
      H174          H  0.4203757  0.2654501  0.2639061    0.00000       Uiso       1.00
      H175          H  0.4774982  0.2724105  0.1664910    0.00000       Uiso       1.00
      H176          H  0.5023354  0.2807541  0.1955012    0.00000       Uiso       1.00
      C324          C  0.2871220  0.2937402  0.1412556    0.00000       Uiso       1.00
      C325          C  0.2610904  0.2798755  0.1395692    0.00000       Uiso       1.00
      C326          C  0.2911909  0.3177714  0.1472377    0.00000       Uiso       1.00
      C327          C  0.2699317  0.3275543  0.1515099    0.00000       Uiso       1.00
      C328          C  0.2440182  0.3138866  0.1495217    0.00000       Uiso       1.00
      C329          C  0.2399471  0.2898611  0.1434732    0.00000       Uiso       1.00
      H177          H  0.2569340  0.2609969  0.1355647    0.00000       Uiso       1.00
      H178          H  0.2205778  0.2789363  0.1413976    0.00000       Uiso       1.00
      H179          H  0.3110931  0.3292768  0.1482836    0.00000       Uiso       1.00
      H180          H  0.2737008  0.3456956  0.1566703    0.00000       Uiso       1.00
      C330          C  0.3152612  0.1177195  0.1694899    0.00000       Uiso       1.00
      C331          C  0.3308114  0.1055703  0.1556103    0.00000       Uiso       1.00
      C332          C  0.2852874  0.0977408  0.1935296    0.00000       Uiso       1.00
      C333          C  0.2712693  0.0666997  0.2033064    0.00000       Uiso       1.00
      C334          C  0.2869248  0.0544719  0.1896235    0.00000       Uiso       1.00
      C335          C  0.3169596  0.0744430  0.1655894    0.00000       Uiso       1.00
      H181          H  0.3536638  0.1203043  0.1367253    0.00000       Uiso       1.00
      H182          H  0.3299589  0.0660133  0.1546527    0.00000       Uiso       1.00
      H183          H  0.2727389  0.1061247  0.2050462    0.00000       Uiso       1.00
      H184          H  0.2479959  0.0523133  0.2214552    0.00000       Uiso       1.00
      C336          C  0.4626234  0.3218156  0.9935143    0.00000       Uiso       1.00
      C337          C  0.4886266  0.3495377  0.9813581    0.00000       Uiso       1.00
      C338          C  0.4585254  0.3117857  0.9735461    0.00000       Uiso       1.00
      C339          C  0.4797291  0.3287969  0.9425085    0.00000       Uiso       1.00
      C340          C  0.5056133  0.3567022  0.9302741    0.00000       Uiso       1.00
      C341          C  0.5097135  0.3668007  0.9502347    0.00000       Uiso       1.00
      H185          H  0.4928055  0.3576838  0.9960834    0.00000       Uiso       1.00
      H186          H  0.5290612  0.3882471  0.9417998    0.00000       Uiso       1.00
      H187          H  0.4386424  0.2908345  0.9819359    0.00000       Uiso       1.00
      H188          H  0.4759406  0.3198837  0.9281299    0.00000       Uiso       1.00
      C342          C  0.3751146  0.2373486  0.1756488    0.00000       Uiso       1.00
      C343          C  0.3916066  0.2542779  0.1436698    0.00000       Uiso       1.00
      C344          C  0.4231213  0.2736329  0.1299535    0.00000       Uiso       1.00
      C345          C  0.4368955  0.2773782  0.1472695    0.00000       Uiso       1.00
      C346          C  0.4200660  0.2611888  0.1790520    0.00000       Uiso       1.00
      C347          C  0.3889741  0.2408137  0.1929786    0.00000       Uiso       1.00
      H189          H  0.3753214  0.2271515  0.2173612    0.00000       Uiso       1.00
      H190          H  0.4377186  0.2860506  0.1057761    0.00000       Uiso       1.00
      H191          H  0.4608652  0.2933365  0.1355688    0.00000       Uiso       1.00
      C348          C  0.3521201  0.2616113  0.1300830    0.00000       Uiso       1.00
      C349          C  0.3370178  0.2619899  0.1131795    0.00000       Uiso       1.00
      C350          C  0.3465042  0.2737828  0.1494395    0.00000       Uiso       1.00
      C351          C  0.3254184  0.2837675  0.1532103    0.00000       Uiso       1.00
      C352          C  0.3097749  0.2830692  0.1370462    0.00000       Uiso       1.00
      C353          C  0.3161977  0.2723400  0.1166701    0.00000       Uiso       1.00
      H192          H  0.3054367  0.2723053  0.1030270    0.00000       Uiso       1.00
      H193          H  0.3583005  0.2760055  0.1618391    0.00000       Uiso       1.00
      H194          H  0.3211821  0.2917905  0.1691682    0.00000       Uiso       1.00
      C354          C  0.3584428  0.2148399  0.1373819    0.00000       Uiso       1.00
      C355          C  0.3750018  0.1994028  0.1377344    0.00000       Uiso       1.00
      C356          C  0.3269250  0.1970131  0.1495715    0.00000       Uiso       1.00
      C357          C  0.3132074  0.1659445  0.1595496    0.00000       Uiso       1.00
      C358          C  0.3301013  0.1510418  0.1588258    0.00000       Uiso       1.00
      C359          C  0.3611998  0.1682349  0.1480777    0.00000       Uiso       1.00
      H195          H  0.3749030  0.1575433  0.1480226    0.00000       Uiso       1.00
      H196          H  0.3122823  0.2065541  0.1518136    0.00000       Uiso       1.00
      H197          H  0.2892301  0.1536526  0.1675878    0.00000       Uiso       1.00
      C360          C  0.3978042  0.2679183  0.0906217    0.00000       Uiso       1.00
      C361          C  0.4128400  0.2999064  0.0751934    0.00000       Uiso       1.00
      C362          C  0.4034223  0.2542183  0.0727919    0.00000       Uiso       1.00
      C363          C  0.4244514  0.2715569  0.0417271    0.00000       Uiso       1.00
      C364          C  0.4400314  0.3033475  0.0268323    0.00000       Uiso       1.00
      C365          C  0.4336029  0.3172591  0.0440297    0.00000       Uiso       1.00
      H198          H  0.4443140  0.3416479  0.0333451    0.00000       Uiso       1.00
      H199          H  0.3916707  0.2300364  0.0823278    0.00000       Uiso       1.00
      H200          H  0.4286945  0.2598670  0.0294317    0.00000       Uiso       1.00
      Cl37         Cl  0.3361030  0.2115537  0.1945105    0.00000       Uiso       1.00
      Cl38         Cl  0.4140251  0.2195898  0.1244744    0.00000       Uiso       1.00
      Cl39         Cl  0.4059305  0.3187501  0.0953859    0.00000       Uiso       1.00
      Cl40         Cl  0.3439166  0.2487544  0.0873850    0.00000       Uiso       1.00
      C366          C  0.2500005  0.7518216  0.9997523    0.00000       Uiso       1.00
      C367          C  0.4892916  0.8944788  0.8151267    0.00000       Uiso       1.00
      C368          C  0.4785231  0.8774077  0.8464609    0.00000       Uiso       1.00
      C369          C  0.4995446  0.8781888  0.8567432    0.00000       Uiso       1.00
      C370          C  0.5309613  0.8955171  0.8359135    0.00000       Uiso       1.00
      C371          C  0.5417298  0.9123153  0.8045213    0.00000       Uiso       1.00
      C372          C  0.5207155  0.9117064  0.7942465    0.00000       Uiso       1.00
      H201          H  0.4736137  0.8947017  0.8066319    0.00000       Uiso       1.00
      H202          H  0.5285069  0.9246364  0.7701238    0.00000       Uiso       1.00
      H203          H  0.4916166  0.8653807  0.8809094    0.00000       Uiso       1.00
      C373          C  0.1242094  0.7793470  0.8969443    0.00000       Uiso       1.00
      C374          C  0.1071100  0.7936008  0.9032595    0.00000       Uiso       1.00
      C375          C  0.1234283  0.7682683  0.8767090    0.00000       Uiso       1.00
      C376          C  0.1060723  0.7717453  0.8626379    0.00000       Uiso       1.00
      C377          C  0.0892455  0.7863294  0.8686805    0.00000       Uiso       1.00
      C378          C  0.0898544  0.7972286  0.8890807    0.00000       Uiso       1.00
      H204          H  0.1068864  0.8018841  0.9191567    0.00000       Uiso       1.00
      H205          H  0.0769026  0.8084143  0.8942291    0.00000       Uiso       1.00
      H206          H  0.1362583  0.7569176  0.8718191    0.00000       Uiso       1.00
      C379          C  0.2224493  0.8272072  0.1530437    0.00000       Uiso       1.00
      C380          C  0.2082176  0.8066728  0.1843780    0.00000       Uiso       1.00
      C381          C  0.2335026  0.8585006  0.1427614    0.00000       Uiso       1.00
      C382          C  0.2300219  0.8691085  0.1635911    0.00000       Uiso       1.00
      C383          C  0.2154596  0.8485163  0.1949833    0.00000       Uiso       1.00
      C384          C  0.2045860  0.8172374  0.2052582    0.00000       Uiso       1.00
      H207          H  0.1999544  0.7825087  0.1928728    0.00000       Uiso       1.00
      H208          H  0.1934176  0.8009303  0.2293809    0.00000       Uiso       1.00
      H209          H  0.2448363  0.8747146  0.1185952    0.00000       Uiso       1.00
      C385          C  0.1748212  0.5233262  0.1025604    0.00000       Uiso       1.00
      C386          C  0.1953839  0.5125356  0.0962452    0.00000       Uiso       1.00
      C387          C  0.1435276  0.5023302  0.1227956    0.00000       Uiso       1.00
      C388          C  0.1329476  0.4709171  0.1368667    0.00000       Uiso       1.00
      C389          C  0.1535682  0.4601268  0.1308242    0.00000       Uiso       1.00
      C390          C  0.1848472  0.4811155  0.1104239    0.00000       Uiso       1.00
      H210          H  0.2195485  0.5281934  0.0803480    0.00000       Uiso       1.00
      H211          H  0.2011760  0.4733069  0.1052756    0.00000       Uiso       1.00
      H212          H  0.1272918  0.5102751  0.1276856    0.00000       Uiso       1.00
      Cl41         Cl  0.1057512  0.7577951  0.8375776    0.00000       Uiso       1.00
      Cl42         Cl  0.2439403  0.9080929  0.1499813    0.00000       Uiso       1.00
      Cl43         Cl  0.0939622  0.4455609  0.1619270    0.00000       Uiso       1.00
      Cl44         Cl  0.5563494  0.8958392  0.8495234    0.00000       Uiso       1.00
      C391          C  0.3940575  0.8517460  0.8859518    0.00000       Uiso       1.00
      C392          C  0.3819343  0.8240457  0.9119225    0.00000       Uiso       1.00
      C393          C  0.4019357  0.8140534  0.9159406    0.00000       Uiso       1.00
      C394          C  0.4329735  0.8310799  0.8946909    0.00000       Uiso       1.00
      C395          C  0.4451758  0.8589639  0.8688388    0.00000       Uiso       1.00
      C396          C  0.4251820  0.8690248  0.8648188    0.00000       Uiso       1.00
      H213          H  0.3793047  0.8598626  0.8818346    0.00000       Uiso       1.00
      H214          H  0.4335923  0.8904541  0.8454980    0.00000       Uiso       1.00
      H215          H  0.3935727  0.7931201  0.9357962    0.00000       Uiso       1.00
      H216          H  0.4473770  0.8221952  0.8984187    0.00000       Uiso       1.00
      C397          C  0.1776587  0.7673238  0.9401165    0.00000       Uiso       1.00
      C398          C  0.1499400  0.7655964  0.9556990    0.00000       Uiso       1.00
      C399          C  0.1876402  0.7732702  0.9101357    0.00000       Uiso       1.00
      C400          C  0.1705852  0.7774684  0.8961421    0.00000       Uiso       1.00
      C401          C  0.1426831  0.7754391  0.9118291    0.00000       Uiso       1.00
      C402          C  0.1326331  0.7694262  0.9418708    0.00000       Uiso       1.00
      H217          H  0.1418306  0.7616178  0.9785590    0.00000       Uiso       1.00
      H218          H  0.1111909  0.7673209  0.9548931    0.00000       Uiso       1.00
      H219          H  0.2085871  0.7743455  0.8975617    0.00000       Uiso       1.00
      H220          H  0.1794621  0.7826041  0.8728637    0.00000       Uiso       1.00
      C403          C  0.2344829  0.7960140  0.0875824    0.00000       Uiso       1.00
      C404          C  0.2362388  0.7821927  0.1135530    0.00000       Uiso       1.00
      C405          C  0.2285047  0.8200296  0.0835642    0.00000       Uiso       1.00
      C406          C  0.2243031  0.8298392  0.1048138    0.00000       Uiso       1.00
      C407          C  0.2263610  0.8162153  0.1306658    0.00000       Uiso       1.00
      C408          C  0.2324058  0.7922055  0.1346860    0.00000       Uiso       1.00
      H221          H  0.2402422  0.7633268  0.1176703    0.00000       Uiso       1.00
      H222          H  0.2345337  0.7813143  0.1540067    0.00000       Uiso       1.00
      H223          H  0.2274071  0.8315021  0.0637087    0.00000       Uiso       1.00
      H224          H  0.2191424  0.8479667  0.1010860    0.00000       Uiso       1.00
      C409          C  0.2059271  0.6199046  0.0593880    0.00000       Uiso       1.00
      C410          C  0.2197668  0.6077526  0.0438058    0.00000       Uiso       1.00
      C411          C  0.1819223  0.5999351  0.0893688    0.00000       Uiso       1.00
      C412          C  0.1721410  0.5689006  0.1033623    0.00000       Uiso       1.00
      C413          C  0.1857832  0.5566698  0.0876755    0.00000       Uiso       1.00
      C414          C  0.2097823  0.5766314  0.0576340    0.00000       Uiso       1.00
      H225          H  0.2386256  0.6224805  0.0209459    0.00000       Uiso       1.00
      H226          H  0.2206864  0.5681985  0.0446118    0.00000       Uiso       1.00
      H227          H  0.1704359  0.6083205  0.1019426    0.00000       Uiso       1.00
      H228          H  0.1540214  0.5545223  0.1266408    0.00000       Uiso       1.00
      C415          C  0.3002601  0.8020856  0.9618617    0.00000       Uiso       1.00
      C416          C  0.2848204  0.7700970  0.9768877    0.00000       Uiso       1.00
      C417          C  0.3026457  0.7564160  0.9712072    0.00000       Uiso       1.00
      C418          C  0.3337117  0.7737704  0.9501321    0.00000       Uiso       1.00
      C419          C  0.3486151  0.8055599  0.9345644    0.00000       Uiso       1.00
      C420          C  0.3314260  0.8194547  0.9410523    0.00000       Uiso       1.00
      H229          H  0.3421200  0.8438433  0.9303509    0.00000       Uiso       1.00
      H230          H  0.2931058  0.7322376  0.9829440    0.00000       Uiso       1.00
      H231          H  0.3460003  0.7620932  0.9458441    0.00000       Uiso       1.00
      C421          C  0.2316941  0.7563830  0.9832274    0.00000       Uiso       1.00
      C422          C  0.1996986  0.7394293  0.9997757    0.00000       Uiso       1.00
      C423          C  0.2453536  0.7757105  0.9517400    0.00000       Uiso       1.00
      C424          C  0.2279713  0.7794070  0.9380458    0.00000       Uiso       1.00
      C425          C  0.1961746  0.7631939  0.9549312    0.00000       Uiso       1.00
      C426          C  0.1823018  0.7428454  0.9859961    0.00000       Uiso       1.00
      H232          H  0.1579093  0.7291663  0.9996893    0.00000       Uiso       1.00
      H233          H  0.2695364  0.7881435  0.9371031    0.00000       Uiso       1.00
      H234          H  0.2396321  0.7953462  0.9140942    0.00000       Uiso       1.00
      C427          C  0.2454344  0.7638004  0.0226170    0.00000       Uiso       1.00
      C428          C  0.2624119  0.7642288  0.0376433    0.00000       Uiso       1.00
      C429          C  0.2260786  0.7759507  0.0282976    0.00000       Uiso       1.00
      C430          C  0.2223789  0.7859626  0.0493728    0.00000       Uiso       1.00
      C431          C  0.2386163  0.7853139  0.0649405    0.00000       Uiso       1.00
      C432          C  0.2589923  0.7746061  0.0584527    0.00000       Uiso       1.00
      H235          H  0.2726903  0.7746094  0.0691542    0.00000       Uiso       1.00
      H236          H  0.2136252  0.7781357  0.0165609    0.00000       Uiso       1.00
      H237          H  0.2064180  0.7939675  0.0536608    0.00000       Uiso       1.00
      C433          C  0.2380541  0.7170076  0.0162771    0.00000       Uiso       1.00
      C434          C  0.2376323  0.7015432  0.9997287    0.00000       Uiso       1.00
      C435          C  0.2259244  0.6992111  0.0477648    0.00000       Uiso       1.00
      C436          C  0.2159404  0.6681483  0.0614590    0.00000       Uiso       1.00
      C437          C  0.2165969  0.6532202  0.0445733    0.00000       Uiso       1.00
      C438          C  0.2272833  0.6703815  0.0135082    0.00000       Uiso       1.00
      H238          H  0.2272839  0.6596678  0.9998149    0.00000       Uiso       1.00
      H239          H  0.2237344  0.7087715  0.0624019    0.00000       Uiso       1.00
      H240          H  0.2079511  0.6558813  0.0854109    0.00000       Uiso       1.00
      Cl45         Cl  0.2800780  0.8209086  0.9688445    0.00000       Uiso       1.00
      Cl46         Cl  0.2882106  0.7510225  0.0306606    0.00000       Uiso       1.00
      Cl47         Cl  0.2508128  0.7216899  0.9607466    0.00000       Uiso       1.00
      Cl48         Cl  0.1809027  0.7136666  0.0387575    0.00000       Uiso       1.00
       Si1         Si  0.7362211  0.8752342  0.2497101    0.00000       Uiso       1.00
        B1          B  0.7116333  0.9070354  0.2657696    0.00000       Uiso       1.00
        O1          O  0.7388013  0.9093860  0.2448459    0.00000       Uiso       1.00
        B2          B  0.6798305  0.8274105  0.2815222    0.00000       Uiso       1.00
        O2          O  0.7046688  0.8459932  0.2838644    0.00000       Uiso       1.00
        O3          O  0.7338506  0.8703110  0.2204634    0.00000       Uiso       1.00
        B3          B  0.7275414  0.8911917  0.2019518    0.00000       Uiso       1.00
        O4          O  0.6810579  0.8841096  0.2763766    0.00000       Uiso       1.00
        O5          O  0.6720994  0.8397010  0.2586721    0.00000       Uiso       1.00
        O6          O  0.7075526  0.9017604  0.2143067    0.00000       Uiso       1.00
       Si2         Si  0.6764501  0.8751858  0.2498008    0.00000       Uiso       1.00
        O7          O  0.6447135  0.8751380  0.2498623    0.00000       Uiso       1.00
      H241          H  0.6487259  0.8959352  0.2447677    0.00000       Uiso       1.00
        O8          O  0.7679492  0.8752756  0.2496677    0.00000       Uiso       1.00
      H242          H  0.7648780  0.8551880  0.2526411    0.00000       Uiso       1.00
       Si3         Si  0.6251954  0.4861816  0.7502900    0.00000       Uiso       1.00
        B4          B  0.6730400  0.4776371  0.7342305    0.00000       Uiso       1.00
        O9          O  0.6544879  0.4839024  0.7551543    0.00000       Uiso       1.00
        B5          B  0.6091520  0.4615712  0.7184779    0.00000       Uiso       1.00
       O10          O  0.6300744  0.4887493  0.7161357    0.00000       Uiso       1.00
       O11          O  0.5910548  0.4545936  0.7795367    0.00000       Uiso       1.00
        B6          B  0.5934425  0.4297915  0.7980483    0.00000       Uiso       1.00
       O12          O  0.6607106  0.4576581  0.7236235    0.00000       Uiso       1.00
       O13          O  0.5986152  0.4310128  0.7413280    0.00000       Uiso       1.00
       O14          O  0.6163537  0.4221452  0.7856934    0.00000       Uiso       1.00
       Si4         Si  0.6252376  0.4265012  0.7501993    0.00000       Uiso       1.00
       O15          O  0.6252512  0.3948259  0.7501379    0.00000       Uiso       1.00
      H243          H  0.6409588  0.3937488  0.7552325    0.00000       Uiso       1.00
       O16          O  0.6251945  0.5178673  0.7503324    0.00000       Uiso       1.00
      H244          H  0.6080772  0.5177665  0.7473591    0.00000       Uiso       1.00
       Si5         Si  0.5138428  0.2638379  0.3613493    0.00000       Uiso       1.00
        B7          B  0.5385280  0.3200991  0.3525425    0.00000       Uiso       1.00
       O17          O  0.5112769  0.2953722  0.3588485    0.00000       Uiso       1.00
       O18          O  0.5454541  0.2664623  0.3638237    0.00000       Uiso       1.00
        B8          B  0.5701246  0.2727516  0.3365667    0.00000       Uiso       1.00
        B9          B  0.5226077  0.2885239  0.3051332    0.00000       Uiso       1.00
       O19          O  0.5163644  0.2613020  0.3297869    0.00000       Uiso       1.00
       O20          O  0.5691308  0.3278496  0.3326731    0.00000       Uiso       1.00
       O21          O  0.5778268  0.2926055  0.3059929    0.00000       Uiso       1.00
       O22          O  0.5424556  0.3191308  0.2974155    0.00000       Uiso       1.00
       Si6         Si  0.5736651  0.3237408  0.3014938    0.00000       Uiso       1.00
       O23          O  0.4821811  0.2321484  0.3930345    0.00000       Uiso       1.00
      H245          H  0.4853330  0.2151583  0.3929859    0.00000       Uiso       1.00
       O24          O  0.6053352  0.3554324  0.2698190    0.00000       Uiso       1.00
      H246          H  0.6013426  0.3722133  0.2688228    0.00000       Uiso       1.00
       Si7         Si  0.1253264  0.3753308  0.6386509    0.00000       Uiso       1.00
       B10          B  0.1727896  0.3912181  0.6474576    0.00000       Uiso       1.00
       O25          O  0.1543625  0.3702666  0.6411517    0.00000       Uiso       1.00
       O26          O  0.1304228  0.4094141  0.6361764    0.00000       Uiso       1.00
       B11          B  0.1094825  0.4068549  0.6634334    0.00000       Uiso       1.00
       B12          B  0.0938527  0.3279360  0.6948669    0.00000       Uiso       1.00
       O27          O  0.0912597  0.3463217  0.6702133    0.00000       Uiso       1.00
       O28          O  0.1606907  0.4019714  0.6673270    0.00000       Uiso       1.00
       O29          O  0.0987932  0.3840139  0.6940073    0.00000       Uiso       1.00
       O30          O  0.1167496  0.3400738  0.7025847    0.00000       Uiso       1.00
       Si8         Si  0.1254339  0.3753575  0.6985064    0.00000       Uiso       1.00
       O31          O  0.1252903  0.3753225  0.6069657    0.00000       Uiso       1.00
      H247          H  0.1082518  0.3784260  0.6070142    0.00000       Uiso       1.00
       O32          O  0.1254824  0.3753847  0.7301812    0.00000       Uiso       1.00
      H248          H  0.1412681  0.3703968  0.7311774    0.00000       Uiso       1.00
       Si9         Si  0.1256000  0.3766311  0.1380453    0.00000       Uiso       1.00
       B13          B  0.1575160  0.3607065  0.1625287    0.00000       Uiso       1.00
       O33          O  0.1597987  0.3815801  0.1353985    0.00000       Uiso       1.00
       B14          B  0.0778503  0.3448096  0.1944463    0.00000       Uiso       1.00
       O34          O  0.0963965  0.3424650  0.1696085    0.00000       Uiso       1.00
       O35          O  0.1206754  0.4058697  0.1404223    0.00000       Uiso       1.00
       B15          B  0.1416054  0.4244495  0.1466784    0.00000       Uiso       1.00
       O36          O  0.1346350  0.3501023  0.1931036    0.00000       Uiso       1.00
       O37          O  0.0901803  0.3677082  0.2021399    0.00000       Uiso       1.00
       O38          O  0.1522435  0.4121639  0.1666139    0.00000       Uiso       1.00
      Si10         Si  0.1257093  0.3766641  0.1977226    0.00000       Uiso       1.00
       O39          O  0.1257452  0.3766683  0.2294094    0.00000       Uiso       1.00
      H249          H  0.1465644  0.3818095  0.2253603    0.00000       Uiso       1.00
       O40          O  0.1255578  0.3766078  0.1063670    0.00000       Uiso       1.00
      H250          H  0.1054468  0.3735878  0.1094749    0.00000       Uiso       1.00
      Si11         Si  0.6265253  0.9876368  0.7490147    0.00000       Uiso       1.00
       B16          B  0.6423122  0.9787736  0.7015932    0.00000       Uiso       1.00
       O41          O  0.6213765  0.9850624  0.7200348    0.00000       Uiso       1.00
       O42          O  0.6606485  0.9901906  0.7438559    0.00000       Uiso       1.00
       B17          B  0.6581406  0.9629702  0.7647685    0.00000       Uiso       1.00
       B18          B  0.5791392  0.9313610  0.7805371    0.00000       Uiso       1.00
       O43          O  0.5975605  0.9560684  0.7830879    0.00000       Uiso       1.00
       O44          O  0.6531144  0.9589577  0.7136508    0.00000       Uiso       1.00
       O45          O  0.6352920  0.9323583  0.7754884    0.00000       Uiso       1.00
       O46          O  0.5912357  0.9236277  0.7576510    0.00000       Uiso       1.00
      Si12         Si  0.6265518  0.9277812  0.7489073    0.00000       Uiso       1.00
       O47          O  0.6265165  0.0193223  0.7490508    0.00000       Uiso       1.00
      H251          H  0.6296698  0.0193172  0.7660562    0.00000       Uiso       1.00
       O48          O  0.6265788  0.8961063  0.7488589    0.00000       Uiso       1.00
      H252          H  0.6215414  0.8950642  0.7331083    0.00000       Uiso       1.00
      Si13         Si  0.0134634  0.7635141  0.8598949    0.00000       Uiso       1.00
       B19          B  0.0699041  0.7881286  0.8512574    0.00000       Uiso       1.00
       O49          O  0.0450613  0.7609457  0.8575284    0.00000       Uiso       1.00
       B20          B  0.0220069  0.8198869  0.8353926    0.00000       Uiso       1.00
       O50          O  0.0158021  0.7950889  0.8625204    0.00000       Uiso       1.00
       O51          O  0.0108260  0.7658188  0.8283366    0.00000       Uiso       1.00
       B21          B  0.0379829  0.7720952  0.8034897    0.00000       Uiso       1.00
       O52          O  0.0775267  0.8186823  0.8313329    0.00000       Uiso       1.00
       O53          O  0.0419735  0.8275700  0.8048148    0.00000       Uiso       1.00
       O54          O  0.0685643  0.7920956  0.7958085    0.00000       Uiso       1.00
      Si14         Si  0.0731264  0.8232253  0.8002145    0.00000       Uiso       1.00
       O55          O  0.1047835  0.8549302  0.7685394    0.00000       Uiso       1.00
      H253          H  0.1215810  0.8509231  0.7674103    0.00000       Uiso       1.00
       O56          O  0.9818081  0.7318177  0.8915805    0.00000       Uiso       1.00
      H254          H  0.9647750  0.7348806  0.8915311    0.00000       Uiso       1.00
      Si15         Si  0.2364027  0.8752897  0.2509854    0.00000       Uiso       1.00
       B22          B  0.1801655  0.8437027  0.2984070    0.00000       Uiso       1.00
       O57          O  0.2048774  0.8411900  0.2799653    0.00000       Uiso       1.00
       O58          O  0.2338028  0.9042593  0.2561443    0.00000       Uiso       1.00
       B23          B  0.2274742  0.9226431  0.2352316    0.00000       Uiso       1.00
       B24          B  0.2116175  0.8593944  0.2194631    0.00000       Uiso       1.00
       O59          O  0.2388734  0.8803641  0.2169122    0.00000       Uiso       1.00
       O60          O  0.1723952  0.8665504  0.2863493    0.00000       Uiso       1.00
       O61          O  0.2075713  0.9105036  0.2245118    0.00000       Uiso       1.00
       O62          O  0.1810212  0.8486277  0.2423492    0.00000       Uiso       1.00
      Si16         Si  0.1764398  0.8752090  0.2510928    0.00000       Uiso       1.00
       O63          O  0.2681239  0.8753175  0.2509493    0.00000       Uiso       1.00
      H255          H  0.2851073  0.8954592  0.2339440    0.00000       Uiso       1.00
       O64          O  0.1447165  0.8751875  0.2511413    0.00000       Uiso       1.00
      H256          H  0.1279396  0.8544155  0.2668919    0.00000       Uiso       1.00
