data_17
_audit_creation_date              0000-00-00
_audit_creation_method            'LanYouShi'
_symmetry_space_group_name_H-M    'P1'
_cell_length_a                    84.9606018
_cell_length_b                    73.5671005
_cell_length_c                    73.5671005
_cell_angle_alpha                 109.4953995
_cell_angle_beta                  54.7295990
_cell_angle_gamma                 125.2705002
loop_
_atom_site_label
_atom_site_type_symbol
_atom_site_fract_x
_atom_site_fract_y
_atom_site_fract_z
_atom_site_U_iso_or_equiv
_atom_site_adp_type
_atom_site_occupancy
        C1          C  0.4999998  0.4999997  0.5000000    0.00000       Uiso       1.00
        C2          C  0.3642458  0.3238281  0.5308821    0.00000       Uiso       1.00
        C3          C  0.3873194  0.3317902  0.5203725    0.00000       Uiso       1.00
        C4          C  0.3949180  0.3163525  0.5122155    0.00000       Uiso       1.00
        C5          C  0.3796067  0.2932278  0.5147902    0.00000       Uiso       1.00
        C6          C  0.3564909  0.2852658  0.5255429    0.00000       Uiso       1.00
        C7          C  0.3488976  0.3006980  0.5335677    0.00000       Uiso       1.00
        H1          H  0.3579694  0.3353400  0.5369815    0.00000       Uiso       1.00
        H2          H  0.4127132  0.3222158  0.5038470    0.00000       Uiso       1.00
        C8          C  0.4240982  0.5923073  0.5555288    0.00000       Uiso       1.00
        C9          C  0.4287000  0.6048712  0.5404174    0.00000       Uiso       1.00
       C10          C  0.4092190  0.5928656  0.5785650    0.00000       Uiso       1.00
       C11          C  0.3988307  0.6056021  0.5863786    0.00000       Uiso       1.00
       C12          C  0.4032318  0.6179653  0.5712247    0.00000       Uiso       1.00
       C13          C  0.4182325  0.6175337  0.5481992    0.00000       Uiso       1.00
        H3          H  0.4403889  0.6050481  0.5226291    0.00000       Uiso       1.00
        H4          H  0.4056555  0.5834390  0.5904970    0.00000       Uiso       1.00
       C14          C  0.6126803  0.5203725  0.3317908    0.00000       Uiso       1.00
       C15          C  0.6357539  0.5308822  0.3238288    0.00000       Uiso       1.00
       C16          C  0.6050818  0.5122156  0.3163531    0.00000       Uiso       1.00
       C17          C  0.6203930  0.5147903  0.2932284    0.00000       Uiso       1.00
       C18          C  0.6435088  0.5255430  0.2852665    0.00000       Uiso       1.00
       C19          C  0.6511021  0.5335679  0.3006988    0.00000       Uiso       1.00
        H5          H  0.6420303  0.5369816  0.3353407    0.00000       Uiso       1.00
        H6          H  0.5872865  0.5038470  0.3222164    0.00000       Uiso       1.00
       C20          C  0.5759014  0.5555288  0.5923078    0.00000       Uiso       1.00
       C21          C  0.5712995  0.5404172  0.6048718    0.00000       Uiso       1.00
       C22          C  0.5907807  0.5785649  0.5928663    0.00000       Uiso       1.00
       C23          C  0.6011689  0.5863785  0.6056028    0.00000       Uiso       1.00
       C24          C  0.5967678  0.5712247  0.6179658    0.00000       Uiso       1.00
       C25          C  0.5817671  0.5481991  0.6175343    0.00000       Uiso       1.00
        H7          H  0.5596107  0.5226289  0.6050487    0.00000       Uiso       1.00
        H8          H  0.5943441  0.5904970  0.5834396    0.00000       Uiso       1.00
        F1          F  0.3832315  0.6057856  0.6106737    0.00000       Uiso       1.00
        F2          F  0.6118806  0.5060943  0.2774457    0.00000       Uiso       1.00
        F3          F  0.6167681  0.6106737  0.6057863    0.00000       Uiso       1.00
        F4          F  0.3881192  0.2774451  0.5060943    0.00000       Uiso       1.00
        F5          F  0.6752554  0.5447816  0.2928630    0.00000       Uiso       1.00
        F6          F  0.3247443  0.2928622  0.5447813    0.00000       Uiso       1.00
        F7          F  0.5766632  0.5318816  0.6304740    0.00000       Uiso       1.00
        F8          F  0.4233364  0.6304734  0.5318817    0.00000       Uiso       1.00
       C26          C  0.4163001  0.3939287  0.5102240    0.00000       Uiso       1.00
       C27          C  0.4354395  0.4028877  0.5114747    0.00000       Uiso       1.00
       C28          C  0.4384417  0.3882000  0.5158468    0.00000       Uiso       1.00
       C29          C  0.4228213  0.3653533  0.5189525    0.00000       Uiso       1.00
       C30          C  0.4037690  0.3563364  0.5174795    0.00000       Uiso       1.00
       C31          C  0.4007653  0.3710184  0.5130585    0.00000       Uiso       1.00
       C32          C  0.4559733  0.5530850  0.5325515    0.00000       Uiso       1.00
       C33          C  0.4674044  0.5734751  0.5223712    0.00000       Uiso       1.00
       C34          C  0.4339112  0.5457106  0.5502412    0.00000       Uiso       1.00
       C35          C  0.4235794  0.5582254  0.5574675    0.00000       Uiso       1.00
       C36          C  0.4350877  0.5787507  0.5474323    0.00000       Uiso       1.00
       C37          C  0.4571945  0.5861754  0.5297467    0.00000       Uiso       1.00
       C38          C  0.5645603  0.5114749  0.4028882    0.00000       Uiso       1.00
       C39          C  0.5836997  0.5102242  0.3939292    0.00000       Uiso       1.00
       C40          C  0.5615581  0.5158470  0.3882005    0.00000       Uiso       1.00
       C41          C  0.5771785  0.5189525  0.3653539    0.00000       Uiso       1.00
       C42          C  0.5962307  0.5174796  0.3563369    0.00000       Uiso       1.00
       C43          C  0.5992345  0.5130586  0.3710189    0.00000       Uiso       1.00
       C44          C  0.5440263  0.5325513  0.5530854    0.00000       Uiso       1.00
       C45          C  0.5325953  0.5223707  0.5734754    0.00000       Uiso       1.00
       C46          C  0.5660883  0.5502414  0.5457113    0.00000       Uiso       1.00
       C47          C  0.5764201  0.5574676  0.5582261    0.00000       Uiso       1.00
       C48          C  0.5649118  0.5474322  0.5787512    0.00000       Uiso       1.00
       C49          C  0.5428052  0.5297462  0.5861757    0.00000       Uiso       1.00
        F9          F  0.4266483  0.3507873  0.5241533    0.00000       Uiso       1.00
       F10          F  0.4586222  0.3967274  0.5169165    0.00000       Uiso       1.00
       F11          F  0.3811476  0.3624525  0.5109455    0.00000       Uiso       1.00
       F12          F  0.4120747  0.4088637  0.5061920    0.00000       Uiso       1.00
       F13          F  0.4211884  0.5244603  0.5618941    0.00000       Uiso       1.00
       F14          F  0.3999855  0.5491974  0.5758604    0.00000       Uiso       1.00
       F15          F  0.4905970  0.5817327  0.5032108    0.00000       Uiso       1.00
       F16          F  0.4703594  0.6079062  0.5186950    0.00000       Uiso       1.00
       F17          F  0.6000139  0.5758608  0.5491984    0.00000       Uiso       1.00
       F18          F  0.5788109  0.5618946  0.5244613    0.00000       Uiso       1.00
       F19          F  0.5094028  0.5032101  0.5817328    0.00000       Uiso       1.00
       F20          F  0.5296404  0.5186943  0.6079063    0.00000       Uiso       1.00
       F21          F  0.6188521  0.5109456  0.3624531    0.00000       Uiso       1.00
       F22          F  0.5879252  0.5061921  0.4088642    0.00000       Uiso       1.00
       F23          F  0.5733514  0.5241534  0.3507878    0.00000       Uiso       1.00
       F24          F  0.5413776  0.5169167  0.3967280    0.00000       Uiso       1.00
       C50          C  0.4721096  0.4629843  0.4909138    0.00000       Uiso       1.00
       C51          C  0.4831944  0.4743708  0.5033739    0.00000       Uiso       1.00
       C52          C  0.4790599  0.4612738  0.5175968    0.00000       Uiso       1.00
       C53          C  0.4635675  0.4384065  0.5203331    0.00000       Uiso       1.00
       C54          C  0.4520835  0.4274135  0.5084183    0.00000       Uiso       1.00
       C55          C  0.4568129  0.4400438  0.4934437    0.00000       Uiso       1.00
        H9          H  0.4489156  0.4321553  0.4833891    0.00000       Uiso       1.00
       H10          H  0.4604467  0.4293785  0.5320623    0.00000       Uiso       1.00
       C56          C  0.4878024  0.5134311  0.5088233    0.00000       Uiso       1.00
       C57          C  0.4999607  0.5369759  0.5091252    0.00000       Uiso       1.00
       C58          C  0.4646170  0.5033426  0.5177855    0.00000       Uiso       1.00
       C59          C  0.4545057  0.5160987  0.5251604    0.00000       Uiso       1.00
       C60          C  0.4669115  0.5394974  0.5246696    0.00000       Uiso       1.00
       C61          C  0.4897871  0.5497428  0.5167690    0.00000       Uiso       1.00
       H11          H  0.4998503  0.5676945  0.5167605    0.00000       Uiso       1.00
       H12          H  0.4368694  0.5074902  0.5310674    0.00000       Uiso       1.00
       C62          C  0.5168054  0.5033739  0.4743712    0.00000       Uiso       1.00
       C63          C  0.5278903  0.4909139  0.4629847    0.00000       Uiso       1.00
       C64          C  0.5209399  0.5175968  0.4612742    0.00000       Uiso       1.00
       C65          C  0.5364323  0.5203332  0.4384069    0.00000       Uiso       1.00
       C66          C  0.5479164  0.5084185  0.4274140    0.00000       Uiso       1.00
       C67          C  0.5431871  0.4934439  0.4400443    0.00000       Uiso       1.00
       H13          H  0.5510844  0.4833893  0.4321558    0.00000       Uiso       1.00
       H14          H  0.5395530  0.5320624  0.4293790    0.00000       Uiso       1.00
       C68          C  0.5121973  0.5088231  0.5134314    0.00000       Uiso       1.00
       C69          C  0.5000387  0.5091243  0.5369763    0.00000       Uiso       1.00
       C70          C  0.5353828  0.5177861  0.5033430    0.00000       Uiso       1.00
       C71          C  0.5454940  0.5251611  0.5160991    0.00000       Uiso       1.00
       C72          C  0.5330881  0.5246695  0.5394979    0.00000       Uiso       1.00
       C73          C  0.5102124  0.5167680  0.5497432    0.00000       Uiso       1.00
       H15          H  0.5001489  0.5167588  0.5676950    0.00000       Uiso       1.00
       H16          H  0.5631306  0.5310688  0.5074906    0.00000       Uiso       1.00
       F25          F  0.4764120  0.4755367  0.4748635    0.00000       Uiso       1.00
       F26          F  0.4757382  0.5008737  0.5487242    0.00000       Uiso       1.00
       F27          F  0.5242611  0.5487240  0.5008754    0.00000       Uiso       1.00
       F28          F  0.5235880  0.4748636  0.4755372    0.00000       Uiso       1.00
       F29          F  0.5089594  0.5302361  0.4710147    0.00000       Uiso       1.00
       F30          F  0.4910404  0.4710142  0.5302361    0.00000       Uiso       1.00
       F31          F  0.5502622  0.5200267  0.4787232    0.00000       Uiso       1.00
       F32          F  0.4497377  0.4787227  0.5200251    0.00000       Uiso       1.00
       C74          C  0.6251115  0.3749438  0.8748323    0.00000       Uiso       1.00
       C75          C  0.6654975  0.4462620  0.0106321    0.00000       Uiso       1.00
       C76          C  0.6806064  0.4508703  0.9875558    0.00000       Uiso       1.00
       C77          C  0.7036360  0.4657599  0.9799603    0.00000       Uiso       1.00
       C78          C  0.7114449  0.4761516  0.9952773    0.00000       Uiso       1.00
       C79          C  0.6962937  0.4717441  0.0183960    0.00000       Uiso       1.00
       C80          C  0.6732747  0.4567330  0.0259862    0.00000       Uiso       1.00
       H17          H  0.6477145  0.4345652  0.0169059    0.00000       Uiso       1.00
       H18          H  0.7155664  0.4693287  0.9621629    0.00000       Uiso       1.00
       C81          C  0.4569524  0.2621879  0.9507080    0.00000       Uiso       1.00
       C82          C  0.4490007  0.2391108  0.9460890    0.00000       Uiso       1.00
       C83          C  0.4415114  0.2697796  0.9656010    0.00000       Uiso       1.00
       C84          C  0.4183935  0.2544580  0.9759858    0.00000       Uiso       1.00
       C85          C  0.4104418  0.2313386  0.9715676    0.00000       Uiso       1.00
       C86          C  0.4258776  0.2237522  0.9565531    0.00000       Uiso       1.00
       H19          H  0.4605154  0.2328396  0.9343895    0.00000       Uiso       1.00
       H20          H  0.4473667  0.2875775  0.9691777    0.00000       Uiso       1.00
       C87          C  0.7174532  0.2990837  0.7620428    0.00000       Uiso       1.00
       C88          C  0.7300150  0.3036911  0.7389677    0.00000       Uiso       1.00
       C89          C  0.7180182  0.2842046  0.7696277    0.00000       Uiso       1.00
       C90          C  0.7307594  0.2738221  0.7543016    0.00000       Uiso       1.00
       C91          C  0.7431205  0.2782288  0.7311843    0.00000       Uiso       1.00
       C92          C  0.7426823  0.2932293  0.7236045    0.00000       Uiso       1.00
       H21          H  0.7301868  0.3153801  0.7327018    0.00000       Uiso       1.00
       H22          H  0.7085931  0.2806370  0.7874240    0.00000       Uiso       1.00
       C93          C  0.6454337  0.4876334  0.7990224    0.00000       Uiso       1.00
       C94          C  0.6559331  0.5107117  0.8036402    0.00000       Uiso       1.00
       C95          C  0.6372802  0.4800311  0.7841401    0.00000       Uiso       1.00
       C96          C  0.6398481  0.4953435  0.7737643    0.00000       Uiso       1.00
       C97          C  0.6505905  0.5184641  0.7781813    0.00000       Uiso       1.00
       C98          C  0.6586118  0.5260610  0.7931853    0.00000       Uiso       1.00
       H23          H  0.6620297  0.5169907  0.8153320    0.00000       Uiso       1.00
       H24          H  0.6289196  0.4622321  0.7805644    0.00000       Uiso       1.00
       F33          F  0.4026070  0.2629634  0.9915996    0.00000       Uiso       1.00
       F34          F  0.7309499  0.2582230  0.7628000    0.00000       Uiso       1.00
       F35          F  0.6311558  0.4868272  0.7581614    0.00000       Uiso       1.00
       F36          F  0.7357330  0.4917617  0.9867680    0.00000       Uiso       1.00
       F37          F  0.7556196  0.2983390  0.6994500    0.00000       Uiso       1.00
       F38          F  0.6569595  0.4516218  0.0501422    0.00000       Uiso       1.00
       F39          F  0.6698148  0.5502194  0.7983057    0.00000       Uiso       1.00
       F40          F  0.4180525  0.1995954  0.9514312    0.00000       Uiso       1.00
       C99          C  0.6474680  0.4075492  0.9585512    0.00000       Uiso       1.00
      C100          C  0.6576434  0.4189849  0.9394175    0.00000       Uiso       1.00
      C101          C  0.6753234  0.4410548  0.9364271    0.00000       Uiso       1.00
      C102          C  0.6825449  0.4513898  0.9520535    0.00000       Uiso       1.00
      C103          C  0.6725147  0.4398771  0.9711000    0.00000       Uiso       1.00
      C104          C  0.6548389  0.4177624  0.9740918    0.00000       Uiso       1.00
      C105          C  0.5280283  0.3103398  0.9188444    0.00000       Uiso       1.00
      C106          C  0.5190780  0.2911965  0.9074001    0.00000       Uiso       1.00
      C107          C  0.5133393  0.3133353  0.9409156    0.00000       Uiso       1.00
      C108          C  0.4904997  0.2977047  0.9512436    0.00000       Uiso       1.00
      C109          C  0.4814913  0.2786485  0.9397223    0.00000       Uiso       1.00
      C110          C  0.4961746  0.2756515  0.9176062    0.00000       Uiso       1.00
      C111          C  0.6782165  0.3309411  0.8102087    0.00000       Uiso       1.00
      C112          C  0.6986014  0.3423814  0.7910706    0.00000       Uiso       1.00
      C113          C  0.6708520  0.3088758  0.8131945    0.00000       Uiso       1.00
      C114          C  0.6833715  0.2985496  0.7975593    0.00000       Uiso       1.00
      C115          C  0.7038916  0.3100671  0.7785082    0.00000       Uiso       1.00
      C116          C  0.7113065  0.3321771  0.7755210    0.00000       Uiso       1.00
      C117          C  0.6365576  0.4395093  0.8308584    0.00000       Uiso       1.00
      C118          C  0.6352986  0.4586482  0.8423071    0.00000       Uiso       1.00
      C119          C  0.6409308  0.4365090  0.8087919    0.00000       Uiso       1.00
      C120          C  0.6440294  0.4521308  0.7984726    0.00000       Uiso       1.00
      C121          C  0.6425481  0.4711825  0.8099985    0.00000       Uiso       1.00
      C122          C  0.6381260  0.4741843  0.8321099    0.00000       Uiso       1.00
       F41          F  0.7009274  0.4749920  0.9482394    0.00000       Uiso       1.00
       F42          F  0.6869708  0.4537827  0.9162528    0.00000       Uiso       1.00
       F43          F  0.6437930  0.4045927  0.9937027    0.00000       Uiso       1.00
       F44          F  0.6283180  0.3843481  0.9627644    0.00000       Uiso       1.00
       F45          F  0.5218579  0.3335195  0.9536527    0.00000       Uiso       1.00
       F46          F  0.4759320  0.3015251  0.9748474    0.00000       Uiso       1.00
       F47          F  0.5340148  0.2869779  0.8841971    0.00000       Uiso       1.00
       F48          F  0.4876175  0.2560301  0.9044276    0.00000       Uiso       1.00
       F49          F  0.6492317  0.4483060  0.7748731    0.00000       Uiso       1.00
       F50          F  0.6420093  0.4163289  0.7960507    0.00000       Uiso       1.00
       F51          F  0.6312647  0.4628720  0.8655052    0.00000       Uiso       1.00
       F52          F  0.6360043  0.4938010  0.8452931    0.00000       Uiso       1.00
       F53          F  0.7330312  0.3453517  0.7559054    0.00000       Uiso       1.00
       F54          F  0.7068487  0.3655776  0.7868621    0.00000       Uiso       1.00
       F55          F  0.6743543  0.2749517  0.8013693    0.00000       Uiso       1.00
       F56          F  0.6496075  0.2961436  0.8333731    0.00000       Uiso       1.00
      C123          C  0.6342366  0.3749869  0.9027184    0.00000       Uiso       1.00
      C124          C  0.6339294  0.3871452  0.8916447    0.00000       Uiso       1.00
      C125          C  0.6428816  0.4103346  0.8957959    0.00000       Uiso       1.00
      C126          C  0.6502520  0.4204491  0.9112940    0.00000       Uiso       1.00
      C127          C  0.6497664  0.4080431  0.9227672    0.00000       Uiso       1.00
      C128          C  0.6418758  0.3851639  0.9180208    0.00000       Uiso       1.00
       H25          H  0.6418715  0.3751006  0.9259090    0.00000       Uiso       1.00
       H26          H  0.6561513  0.4380882  0.9144279    0.00000       Uiso       1.00
      C129          C  0.5994900  0.3581268  0.8870261    0.00000       Uiso       1.00
      C130          C  0.5881085  0.3470371  0.8748629    0.00000       Uiso       1.00
      C131          C  0.5863950  0.3539862  0.9102136    0.00000       Uiso       1.00
      C132          C  0.5635346  0.3384835  0.9203212    0.00000       Uiso       1.00
      C133          C  0.5525467  0.3269948  0.9079101    0.00000       Uiso       1.00
      C134          C  0.5651749  0.3317301  0.8850331    0.00000       Uiso       1.00
       H27          H  0.5572898  0.3238294  0.8749663    0.00000       Uiso       1.00
       H28          H  0.5545081  0.3353586  0.9379588    0.00000       Uiso       1.00
      C135          C  0.6385483  0.3627524  0.8580099    0.00000       Uiso       1.00
      C136          C  0.6620877  0.3749214  0.8469254    0.00000       Uiso       1.00
      C137          C  0.6284701  0.3395624  0.8538591    0.00000       Uiso       1.00
      C138          C  0.6412308  0.3294570  0.8383519    0.00000       Uiso       1.00
      C139          C  0.6646240  0.3418733  0.8268686    0.00000       Uiso       1.00
      C140          C  0.6748592  0.3647535  0.8316138    0.00000       Uiso       1.00
       H29          H  0.6928065  0.3748248  0.8237175    0.00000       Uiso       1.00
       H30          H  0.6326302  0.3118166  0.8352193    0.00000       Uiso       1.00
      C141          C  0.6284780  0.3917508  0.8626484    0.00000       Uiso       1.00
      C142          C  0.6160133  0.4028303  0.8748224    0.00000       Uiso       1.00
      C143          C  0.6426986  0.3958912  0.8394603    0.00000       Uiso       1.00
      C144          C  0.6454279  0.4113848  0.8293617    0.00000       Uiso       1.00
      C145          C  0.6335086  0.4228639  0.8417831    0.00000       Uiso       1.00
      C146          C  0.6185364  0.4181282  0.8646613    0.00000       Uiso       1.00
       H31          H  0.6084785  0.4260213  0.8747363    0.00000       Uiso       1.00
       H32          H  0.6571555  0.4145104  0.8117226    0.00000       Uiso       1.00
       F57          F  0.6259973  0.3506828  0.8983980    0.00000       Uiso       1.00
       F58          F  0.5999653  0.3985212  0.8991262    0.00000       Uiso       1.00
       F59          F  0.6006590  0.3513452  0.8505608    0.00000       Uiso       1.00
       F60          F  0.6738248  0.3992270  0.8512441    0.00000       Uiso       1.00
       F61          F  0.6038570  0.3246721  0.8658373    0.00000       Uiso       1.00
       F62          F  0.6451151  0.4252150  0.8838277    0.00000       Uiso       1.00
       F63          F  0.6553428  0.3839159  0.8245645    0.00000       Uiso       1.00
       F64          F  0.5961302  0.3659708  0.9250993    0.00000       Uiso       1.00
      C147          C  0.8749997  0.0000562  0.7501683    0.00000       Uiso       1.00
      C148          C  0.8440206  0.1049098  0.7098904    0.00000       Uiso       1.00
      C149          C  0.8545271  0.0923391  0.6947650    0.00000       Uiso       1.00
      C150          C  0.8626667  0.0928872  0.6717323    0.00000       Uiso       1.00
      C151          C  0.8600782  0.1056202  0.6639360    0.00000       Uiso       1.00
      C152          C  0.8493288  0.1179901  0.6791037    0.00000       Uiso       1.00
      C153          C  0.8413211  0.1175688  0.7021257    0.00000       Uiso       1.00
       H33          H  0.8379343  0.1050946  0.7276763    0.00000       Uiso       1.00
       H34          H  0.8710327  0.0834552  0.6597897    0.00000       Uiso       1.00
      C154          C  0.8195872  0.0205040  0.9183702    0.00000       Uiso       1.00
      C155          C  0.8347079  0.0310173  0.9263246    0.00000       Uiso       1.00
      C156          C  0.7965581  0.0123539  0.9338142    0.00000       Uiso       1.00
      C157          C  0.7887606  0.0149390  0.9569380    0.00000       Uiso       1.00
      C158          C  0.8039235  0.0256953  0.9648924    0.00000       Uiso       1.00
      C159          C  0.8269420  0.0337132  0.9494537    0.00000       Uiso       1.00
       H35          H  0.8524911  0.0371116  0.9148074    0.00000       Uiso       1.00
       H36          H  0.7846193  0.0039827  0.9279568    0.00000       Uiso       1.00
      C160          C  0.0431768  0.0555441  0.6578012    0.00000       Uiso       1.00
      C161          C  0.0511380  0.0404270  0.6452223    0.00000       Uiso       1.00
      C162          C  0.0586106  0.0785801  0.6572499    0.00000       Uiso       1.00
      C163          C  0.0817308  0.0863880  0.6445054    0.00000       Uiso       1.00
      C164          C  0.0896920  0.0712286  0.6321272    0.00000       Uiso       1.00
      C165          C  0.0742635  0.0482032  0.6325517    0.00000       Uiso       1.00
       H37          H  0.0396287  0.0226386  0.6450398    0.00000       Uiso       1.00
       H38          H  0.0527478  0.0905163  0.6666883    0.00000       Uiso       1.00
      C166          C  0.7827078  0.8318374  0.7297367    0.00000       Uiso       1.00
      C167          C  0.7701324  0.8238707  0.7192359    0.00000       Uiso       1.00
      C168          C  0.7821634  0.8164034  0.7378767    0.00000       Uiso       1.00
      C169          C  0.7694292  0.7932775  0.7352938    0.00000       Uiso       1.00
      C170          C  0.7570545  0.7853107  0.7245498    0.00000       Uiso       1.00
      C171          C  0.7574722  0.8007394  0.7165420    0.00000       Uiso       1.00
       H39          H  0.7699448  0.8353798  0.7131496    0.00000       Uiso       1.00
       H40          H  0.7915991  0.8222704  0.7462384    0.00000       Uiso       1.00
       F65          F  0.7644725  0.0062500  0.9727275    0.00000       Uiso       1.00
       F66          F  0.0975095  0.1106831  0.6443296    0.00000       Uiso       1.00
       F67          F  0.7692604  0.7774987  0.7439719    0.00000       Uiso       1.00
       F68          F  0.8687563  0.1057929  0.6396440    0.00000       Uiso       1.00
       F69          F  0.0820986  0.0318800  0.6195962    0.00000       Uiso       1.00
       F70          F  0.8301113  0.1305158  0.7184575    0.00000       Uiso       1.00
       F71          F  0.7445202  0.7928985  0.7053379    0.00000       Uiso       1.00
       F72          F  0.8432688  0.0449304  0.9572814    0.00000       Uiso       1.00
      C172          C  0.8647181  0.0735217  0.7278820    0.00000       Uiso       1.00
      C173          C  0.8634669  0.0531271  0.7176890    0.00000       Uiso       1.00
      C174          C  0.8590803  0.0457449  0.7000043    0.00000       Uiso       1.00
      C175          C  0.8559612  0.0582565  0.6927953    0.00000       Uiso       1.00
      C176          C  0.8574346  0.0787861  0.7028432    0.00000       Uiso       1.00
      C177          C  0.8618701  0.0862188  0.7205237    0.00000       Uiso       1.00
      C178          C  0.8425153  0.0115747  0.8472761    0.00000       Uiso       1.00
      C179          C  0.8527088  0.0103278  0.8562208    0.00000       Uiso       1.00
      C180          C  0.8248287  0.0159534  0.8619769    0.00000       Uiso       1.00
      C181          C  0.8176184  0.0190692  0.8848226    0.00000       Uiso       1.00
      C182          C  0.8276667  0.0176001  0.8938252    0.00000       Uiso       1.00
      C183          C  0.8453491  0.0131724  0.8791300    0.00000       Uiso       1.00
      C184          C  0.9720930  0.0325840  0.6970491    0.00000       Uiso       1.00
      C185          C  0.9810423  0.0223946  0.6766510    0.00000       Uiso       1.00
      C186          C  0.9867859  0.0502773  0.7044228    0.00000       Uiso       1.00
      C187          C  0.0096283  0.0574980  0.6918996    0.00000       Uiso       1.00
      C188          C  0.0186354  0.0474536  0.6713665    0.00000       Uiso       1.00
      C189          C  0.0039481  0.0297645  0.6639424    0.00000       Uiso       1.00
      C190          C  0.8219239  0.9029389  0.7386590    0.00000       Uiso       1.00
      C191          C  0.8015299  0.8939806  0.7399191    0.00000       Uiso       1.00
      C192          C  0.8293040  0.8882492  0.7342694    0.00000       Uiso       1.00
      C193          C  0.8167910  0.8654012  0.7311559    0.00000       Uiso       1.00
      C194          C  0.7962621  0.8563849  0.7326382    0.00000       Uiso       1.00
      C195          C  0.7888316  0.8710690  0.7370768    0.00000       Uiso       1.00
       F73          F  0.8507456  0.0492203  0.6744071    0.00000       Uiso       1.00
       F74          F  0.8580093  0.0244895  0.6883384    0.00000       Uiso       1.00
       F75          F  0.8639841  0.1079543  0.7315881    0.00000       Uiso       1.00
       F76          F  0.8687654  0.0817878  0.7470376    0.00000       Uiso       1.00
       F77          F  0.8131626  0.0170195  0.8534646    0.00000       Uiso       1.00
       F78          F  0.7992278  0.0242766  0.8994031    0.00000       Uiso       1.00
       F79          F  0.8718661  0.0062890  0.8412718    0.00000       Uiso       1.00
       F80          F  0.8564144  0.0110631  0.8876802    0.00000       Uiso       1.00
       F81          F  0.8258247  0.8508328  0.7259364    0.00000       Uiso       1.00
       F82          F  0.8505588  0.8967761  0.7331890    0.00000       Uiso       1.00
       F83          F  0.7932657  0.9089173  0.7439699    0.00000       Uiso       1.00
       F84          F  0.7670970  0.8625041  0.7392005    0.00000       Uiso       1.00
       F85          F  0.0125033  0.0187030  0.6422039    0.00000       Uiso       1.00
       F86          F  0.9661018  0.0032304  0.6683934    0.00000       Uiso       1.00
       F87          F  0.0242006  0.0758951  0.7009268    0.00000       Uiso       1.00
       F88          F  0.9782684  0.0619397  0.7256815    0.00000       Uiso       1.00
      C196          C  0.8840652  0.0370285  0.7410722    0.00000       Uiso       1.00
      C197          C  0.8716103  0.0134837  0.7413638    0.00000       Uiso       1.00
      C198          C  0.8573776  0.0033913  0.7324090    0.00000       Uiso       1.00
      C199          C  0.8546277  0.0161441  0.7250513    0.00000       Uiso       1.00
      C200          C  0.8665378  0.0395430  0.7255524    0.00000       Uiso       1.00
      C201          C  0.8815216  0.0497919  0.7334455    0.00000       Uiso       1.00
       H41          H  0.8915727  0.0677438  0.7334613    0.00000       Uiso       1.00
       H42          H  0.8428918  0.0075329  0.7191494    0.00000       Uiso       1.00
      C202          C  0.8661938  0.0034418  0.7757965    0.00000       Uiso       1.00
      C203          C  0.8659077  0.9909865  0.7871671    0.00000       Uiso       1.00
      C204          C  0.8572329  0.0176708  0.7889084    0.00000       Uiso       1.00
      C205          C  0.8498739  0.0204173  0.8117745    0.00000       Uiso       1.00
      C206          C  0.8503801  0.0085073  0.8227515    0.00000       Uiso       1.00
      C207          C  0.8582799  0.9935266  0.8101065    0.00000       Uiso       1.00
       H43          H  0.8583000  0.9834754  0.8179825    0.00000       Uiso       1.00
       H44          H  0.8439671  0.0321507  0.8208141    0.00000       Uiso       1.00
      C208          C  0.9006240  0.0088736  0.7367279    0.00000       Uiso       1.00
      C209          C  0.9119944  0.0091646  0.7131836    0.00000       Uiso       1.00
      C210          C  0.9137319  0.0178406  0.7468082    0.00000       Uiso       1.00
      C211          C  0.9365947  0.0252097  0.7340440    0.00000       Uiso       1.00
      C212          C  0.9475718  0.0247082  0.7106454    0.00000       Uiso       1.00
      C213          C  0.9349303  0.0168026  0.7004089    0.00000       Uiso       1.00
       H45          H  0.9428062  0.0167858  0.6824580    0.00000       Uiso       1.00
       H46          H  0.9456317  0.0311208  0.7426458    0.00000       Uiso       1.00
      C214          C  0.8615709  0.9744256  0.7467848    0.00000       Uiso       1.00
      C215          C  0.8380317  0.9630448  0.7592499    0.00000       Uiso       1.00
      C216          C  0.8716570  0.9613222  0.7325480    0.00000       Uiso       1.00
      C217          C  0.8589030  0.9384537  0.7298039    0.00000       Uiso       1.00
      C218          C  0.8355093  0.9274662  0.7417240    0.00000       Uiso       1.00
      C219          C  0.8252671  0.9401032  0.7567120    0.00000       Uiso       1.00
       H47          H  0.8073198  0.9322193  0.7667707    0.00000       Uiso       1.00
       H48          H  0.8675089  0.9294204  0.7180645    0.00000       Uiso       1.00
       F89          F  0.9001248  0.0487802  0.7493147    0.00000       Uiso       1.00
       F90          F  0.8262872  0.9756045  0.7753143    0.00000       Uiso       1.00
       F91          F  0.8741572  0.9749303  0.7745987    0.00000       Uiso       1.00
       F92          F  0.8994295  0.0009092  0.7014447    0.00000       Uiso       1.00
       F93          F  0.9040080  0.0200915  0.7714277    0.00000       Uiso       1.00
       F94          F  0.8447418  0.9787703  0.7301592    0.00000       Uiso       1.00
       F95          F  0.8962721  0.9710570  0.7199016    0.00000       Uiso       1.00
       F96          F  0.8549779  0.0303060  0.7791855    0.00000       Uiso       1.00
      C220          C  0.3748882  0.8748317  0.3749438    0.00000       Uiso       1.00
      C221          C  0.3345024  0.0106314  0.4462616    0.00000       Uiso       1.00
      C222          C  0.3193930  0.9875550  0.4508702    0.00000       Uiso       1.00
      C223          C  0.2963635  0.9799594  0.4657598    0.00000       Uiso       1.00
      C224          C  0.2885546  0.9952764  0.4761515    0.00000       Uiso       1.00
      C225          C  0.3037063  0.0183953  0.4717436    0.00000       Uiso       1.00
      C226          C  0.3267252  0.0259855  0.4567326    0.00000       Uiso       1.00
       H49          H  0.3522854  0.0169053  0.4345649    0.00000       Uiso       1.00
       H50          H  0.2844331  0.9621620  0.4693286    0.00000       Uiso       1.00
      C227          C  0.5430471  0.9507079  0.2621885    0.00000       Uiso       1.00
      C228          C  0.5509989  0.9460890  0.2391113    0.00000       Uiso       1.00
      C229          C  0.5584882  0.9656008  0.2697801    0.00000       Uiso       1.00
      C230          C  0.5816061  0.9759858  0.2544586    0.00000       Uiso       1.00
      C231          C  0.5895577  0.9715676  0.2313393    0.00000       Uiso       1.00
      C232          C  0.5741221  0.9565531  0.2237528    0.00000       Uiso       1.00
       H51          H  0.5394842  0.9343894  0.2328401    0.00000       Uiso       1.00
       H52          H  0.5526329  0.9691775  0.2875780    0.00000       Uiso       1.00
      C233          C  0.2825465  0.7620419  0.2990834    0.00000       Uiso       1.00
      C234          C  0.2699846  0.7389669  0.3036909    0.00000       Uiso       1.00
      C235          C  0.2819814  0.7696269  0.2842044    0.00000       Uiso       1.00
      C236          C  0.2692403  0.7543007  0.2738218    0.00000       Uiso       1.00
      C237          C  0.2568792  0.7311834  0.2782284    0.00000       Uiso       1.00
      C238          C  0.2573174  0.7236036  0.2932290    0.00000       Uiso       1.00
       H53          H  0.2698129  0.7327009  0.3153797    0.00000       Uiso       1.00
       H54          H  0.2914065  0.7874232  0.2806367    0.00000       Uiso       1.00
      C239          C  0.3545658  0.7990217  0.4876333    0.00000       Uiso       1.00
      C240          C  0.3440665  0.8036395  0.5107116    0.00000       Uiso       1.00
      C241          C  0.3627194  0.7841393  0.4800312    0.00000       Uiso       1.00
      C242          C  0.3601515  0.7737636  0.4953435    0.00000       Uiso       1.00
      C243          C  0.3494091  0.7781805  0.5184641    0.00000       Uiso       1.00
      C244          C  0.3413877  0.7931845  0.5260610    0.00000       Uiso       1.00
       H55          H  0.3379698  0.8153312  0.5169907    0.00000       Uiso       1.00
       H56          H  0.3710800  0.7805637  0.4622322    0.00000       Uiso       1.00
       F97          F  0.5973926  0.9915996  0.2629640    0.00000       Uiso       1.00
       F98          F  0.2690498  0.7627991  0.2582227    0.00000       Uiso       1.00
       F99          F  0.3688436  0.7581607  0.4868272    0.00000       Uiso       1.00
      F100          F  0.2642664  0.9867669  0.4917615    0.00000       Uiso       1.00
      F101          F  0.2443800  0.6994491  0.2983386    0.00000       Uiso       1.00
      F102          F  0.3430403  0.0501415  0.4516215    0.00000       Uiso       1.00
      F103          F  0.3301848  0.7983050  0.5502193    0.00000       Uiso       1.00
      F104          F  0.5819471  0.9514311  0.1995960    0.00000       Uiso       1.00
      C245          C  0.3525315  0.9585505  0.4075492    0.00000       Uiso       1.00
      C246          C  0.3423562  0.9394167  0.4189849    0.00000       Uiso       1.00
      C247          C  0.3246761  0.9364263  0.4410548    0.00000       Uiso       1.00
      C248          C  0.3174545  0.9520528  0.4513898    0.00000       Uiso       1.00
      C249          C  0.3274847  0.9710992  0.4398771    0.00000       Uiso       1.00
      C250          C  0.3451606  0.9740911  0.4177625    0.00000       Uiso       1.00
      C251          C  0.4719712  0.9188440  0.3103402    0.00000       Uiso       1.00
      C252          C  0.4809216  0.9073997  0.2911969    0.00000       Uiso       1.00
      C253          C  0.4866602  0.9409153  0.3133357    0.00000       Uiso       1.00
      C254          C  0.5094999  0.9512433  0.2977051    0.00000       Uiso       1.00
      C255          C  0.5185083  0.9397221  0.2786490    0.00000       Uiso       1.00
      C256          C  0.5038249  0.9176060  0.2756519    0.00000       Uiso       1.00
      C257          C  0.3217831  0.8102080  0.3309410    0.00000       Uiso       1.00
      C258          C  0.3013981  0.7910697  0.3423812    0.00000       Uiso       1.00
      C259          C  0.3291475  0.8131937  0.3088757    0.00000       Uiso       1.00
      C260          C  0.3166281  0.7975585  0.2985495    0.00000       Uiso       1.00
      C261          C  0.2961080  0.7785074  0.3100668    0.00000       Uiso       1.00
      C262          C  0.2886932  0.7755201  0.3321769    0.00000       Uiso       1.00
      C263          C  0.3634420  0.8308578  0.4395093    0.00000       Uiso       1.00
      C264          C  0.3647010  0.8423064  0.4586482    0.00000       Uiso       1.00
      C265          C  0.3590688  0.8087912  0.4365090    0.00000       Uiso       1.00
      C266          C  0.3559702  0.7984719  0.4521308    0.00000       Uiso       1.00
      C267          C  0.3574514  0.8099979  0.4711825    0.00000       Uiso       1.00
      C268          C  0.3618736  0.8321092  0.4741843    0.00000       Uiso       1.00
      F105          F  0.2990721  0.9482386  0.4749919    0.00000       Uiso       1.00
      F106          F  0.3130287  0.9162520  0.4537826    0.00000       Uiso       1.00
      F107          F  0.3562065  0.9937018  0.4045928    0.00000       Uiso       1.00
      F108          F  0.3716816  0.9627637  0.3843482    0.00000       Uiso       1.00
      F109          F  0.4781417  0.9536523  0.3335199    0.00000       Uiso       1.00
      F110          F  0.5240676  0.9748472  0.3015257    0.00000       Uiso       1.00
      F111          F  0.4659848  0.8841967  0.2869782    0.00000       Uiso       1.00
      F112          F  0.5123821  0.9044275  0.2560305    0.00000       Uiso       1.00
      F113          F  0.3507678  0.7748724  0.4483059    0.00000       Uiso       1.00
      F114          F  0.3579903  0.7960500  0.4163288    0.00000       Uiso       1.00
      F115          F  0.3687347  0.8655044  0.4628720    0.00000       Uiso       1.00
      F116          F  0.3639952  0.8452924  0.4938011    0.00000       Uiso       1.00
      F117          F  0.2669684  0.7559046  0.3453514    0.00000       Uiso       1.00
      F118          F  0.2931510  0.7868613  0.3655774    0.00000       Uiso       1.00
      F119          F  0.3256454  0.8013686  0.2749516    0.00000       Uiso       1.00
      F120          F  0.3503921  0.8333724  0.2961435    0.00000       Uiso       1.00
      C269          C  0.3657630  0.9027178  0.3749869    0.00000       Uiso       1.00
      C270          C  0.3660702  0.8916440  0.3871452    0.00000       Uiso       1.00
      C271          C  0.3571179  0.8957952  0.4103346    0.00000       Uiso       1.00
      C272          C  0.3497476  0.9112933  0.4204491    0.00000       Uiso       1.00
      C273          C  0.3502331  0.9227664  0.4080431    0.00000       Uiso       1.00
      C274          C  0.3581238  0.9180202  0.3851640    0.00000       Uiso       1.00
       H57          H  0.3581280  0.9259084  0.3751007    0.00000       Uiso       1.00
       H58          H  0.3438482  0.9144272  0.4380882    0.00000       Uiso       1.00
      C275          C  0.4005094  0.8870255  0.3581270    0.00000       Uiso       1.00
      C276          C  0.4118910  0.8748624  0.3470372    0.00000       Uiso       1.00
      C277          C  0.4136046  0.9102131  0.3539864    0.00000       Uiso       1.00
      C278          C  0.4364649  0.9203207  0.3384838    0.00000       Uiso       1.00
      C279          C  0.4474528  0.9079096  0.3269951    0.00000       Uiso       1.00
      C280          C  0.4348247  0.8850327  0.3317302    0.00000       Uiso       1.00
       H59          H  0.4427097  0.8749658  0.3238296    0.00000       Uiso       1.00
       H60          H  0.4454915  0.9379584  0.3353589    0.00000       Uiso       1.00
      C281          C  0.3614513  0.8580092  0.3627524    0.00000       Uiso       1.00
      C282          C  0.3379118  0.8469246  0.3749213    0.00000       Uiso       1.00
      C283          C  0.3715294  0.8538585  0.3395625    0.00000       Uiso       1.00
      C284          C  0.3587688  0.8383512  0.3294570    0.00000       Uiso       1.00
      C285          C  0.3353756  0.8268679  0.3418732    0.00000       Uiso       1.00
      C286          C  0.3251405  0.8316130  0.3647534    0.00000       Uiso       1.00
       H61          H  0.3071931  0.8237166  0.3748247    0.00000       Uiso       1.00
       H62          H  0.3673694  0.8352187  0.3118166    0.00000       Uiso       1.00
      C287          C  0.3715216  0.8626478  0.3917508    0.00000       Uiso       1.00
      C288          C  0.3839863  0.8748218  0.4028304    0.00000       Uiso       1.00
      C289          C  0.3573010  0.8394595  0.3958912    0.00000       Uiso       1.00
      C290          C  0.3545716  0.8293610  0.4113848    0.00000       Uiso       1.00
      C291          C  0.3664910  0.8417825  0.4228639    0.00000       Uiso       1.00
      C292          C  0.3814632  0.8646607  0.4181283    0.00000       Uiso       1.00
       H63          H  0.3915210  0.8747357  0.4260215    0.00000       Uiso       1.00
       H64          H  0.3428441  0.8117219  0.4145103    0.00000       Uiso       1.00
      F121          F  0.3740022  0.8983974  0.3506829    0.00000       Uiso       1.00
      F122          F  0.4000343  0.8991256  0.3985213    0.00000       Uiso       1.00
      F123          F  0.3993406  0.8505602  0.3513453    0.00000       Uiso       1.00
      F124          F  0.3261747  0.8512433  0.3992270    0.00000       Uiso       1.00
      F125          F  0.3961426  0.8658367  0.3246722    0.00000       Uiso       1.00
      F126          F  0.3548845  0.8838270  0.4252150    0.00000       Uiso       1.00
      F127          F  0.3446568  0.8245637  0.3839159    0.00000       Uiso       1.00
      F128          F  0.4038694  0.9250987  0.3659710    0.00000       Uiso       1.00
      C293          C  0.1250001  0.7501671  0.0000555    0.00000       Uiso       1.00
      C294          C  0.1559792  0.7098892  0.1049092    0.00000       Uiso       1.00
      C295          C  0.1454727  0.6947638  0.0923385    0.00000       Uiso       1.00
      C296          C  0.1373330  0.6717312  0.0928865    0.00000       Uiso       1.00
      C297          C  0.1399215  0.6639348  0.1056195    0.00000       Uiso       1.00
      C298          C  0.1506710  0.6791025  0.1179894    0.00000       Uiso       1.00
      C299          C  0.1586787  0.7021246  0.1175682    0.00000       Uiso       1.00
       H65          H  0.1620655  0.7276752  0.1050940    0.00000       Uiso       1.00
       H66          H  0.1289672  0.6597885  0.0834545    0.00000       Uiso       1.00
      C300          C  0.1804125  0.9183691  0.0205035    0.00000       Uiso       1.00
      C301          C  0.1652918  0.9263235  0.0310167    0.00000       Uiso       1.00
      C302          C  0.2034416  0.9338132  0.0123535    0.00000       Uiso       1.00
      C303          C  0.2112391  0.9569370  0.0149386    0.00000       Uiso       1.00
      C304          C  0.1960762  0.9648914  0.0256948    0.00000       Uiso       1.00
      C305          C  0.1730576  0.9494525  0.0337127    0.00000       Uiso       1.00
       H67          H  0.1475086  0.9148062  0.0371110    0.00000       Uiso       1.00
       H68          H  0.2153804  0.9279558  0.0039823    0.00000       Uiso       1.00
      C306          C  0.9568229  0.6577995  0.0555429    0.00000       Uiso       1.00
      C307          C  0.9488618  0.6452206  0.0404257    0.00000       Uiso       1.00
      C308          C  0.9413892  0.6572483  0.0785788    0.00000       Uiso       1.00
      C309          C  0.9182690  0.6445037  0.0863867    0.00000       Uiso       1.00
      C310          C  0.9103078  0.6321254  0.0712273    0.00000       Uiso       1.00
      C311          C  0.9257363  0.6325500  0.0482019    0.00000       Uiso       1.00
       H69          H  0.9603711  0.6450382  0.0226374    0.00000       Uiso       1.00
       H70          H  0.9472520  0.6666866  0.0905151    0.00000       Uiso       1.00
      C312          C  0.2172916  0.7297355  0.8318371    0.00000       Uiso       1.00
      C313          C  0.2298670  0.7192346  0.8238704    0.00000       Uiso       1.00
      C314          C  0.2178361  0.7378755  0.8164030    0.00000       Uiso       1.00
      C315          C  0.2305703  0.7352927  0.7932771    0.00000       Uiso       1.00
      C316          C  0.2429449  0.7245488  0.7853104    0.00000       Uiso       1.00
      C317          C  0.2425273  0.7165409  0.8007391    0.00000       Uiso       1.00
       H71          H  0.2300546  0.7131484  0.8353795    0.00000       Uiso       1.00
       H72          H  0.2084003  0.7462371  0.8222700    0.00000       Uiso       1.00
      F129          F  0.2355271  0.9727265  0.0062497    0.00000       Uiso       1.00
      F130          F  0.9024903  0.6443278  0.1106817    0.00000       Uiso       1.00
      F131          F  0.2307391  0.7439708  0.7774984    0.00000       Uiso       1.00
      F132          F  0.1312435  0.6396428  0.1057921    0.00000       Uiso       1.00
      F133          F  0.9179012  0.6195945  0.0318786    0.00000       Uiso       1.00
      F134          F  0.1698885  0.7184564  0.1305152    0.00000       Uiso       1.00
      F135          F  0.2554793  0.7053369  0.7928983    0.00000       Uiso       1.00
      F136          F  0.1567309  0.9572802  0.0449298    0.00000       Uiso       1.00
      C318          C  0.1352817  0.7278808  0.0735210    0.00000       Uiso       1.00
      C319          C  0.1365329  0.7176878  0.0531264    0.00000       Uiso       1.00
      C320          C  0.1409195  0.7000031  0.0457442    0.00000       Uiso       1.00
      C321          C  0.1440385  0.6927941  0.0582558    0.00000       Uiso       1.00
      C322          C  0.1425652  0.7028421  0.0787855    0.00000       Uiso       1.00
      C323          C  0.1381297  0.7205225  0.0862181    0.00000       Uiso       1.00
      C324          C  0.1574844  0.8472750  0.0115741    0.00000       Uiso       1.00
      C325          C  0.1472910  0.8562196  0.0103272    0.00000       Uiso       1.00
      C326          C  0.1751709  0.8619758  0.0159529    0.00000       Uiso       1.00
      C327          C  0.1823814  0.8848215  0.0190687    0.00000       Uiso       1.00
      C328          C  0.1723330  0.8938241  0.0175996    0.00000       Uiso       1.00
      C329          C  0.1546505  0.8791289  0.0131719    0.00000       Uiso       1.00
      C330          C  0.0279068  0.6970477  0.0325830    0.00000       Uiso       1.00
      C331          C  0.0189575  0.6766496  0.0223935    0.00000       Uiso       1.00
      C332          C  0.0132138  0.7044213  0.0502762    0.00000       Uiso       1.00
      C333          C  0.9903715  0.6918980  0.0574969    0.00000       Uiso       1.00
      C334          C  0.9813644  0.6713649  0.0474524    0.00000       Uiso       1.00
      C335          C  0.9960517  0.6639408  0.0297634    0.00000       Uiso       1.00
      C336          C  0.1780755  0.7386577  0.9029384    0.00000       Uiso       1.00
      C337          C  0.1984694  0.7399178  0.8939801    0.00000       Uiso       1.00
      C338          C  0.1706954  0.7342680  0.8882487    0.00000       Uiso       1.00
      C339          C  0.1832084  0.7311545  0.8654007    0.00000       Uiso       1.00
      C340          C  0.2037373  0.7326369  0.8563845    0.00000       Uiso       1.00
      C341          C  0.2111679  0.7370756  0.8710685    0.00000       Uiso       1.00
      F137          F  0.1492541  0.6744060  0.0492197    0.00000       Uiso       1.00
      F138          F  0.1419905  0.6883372  0.0244889    0.00000       Uiso       1.00
      F139          F  0.1360156  0.7315869  0.1079536    0.00000       Uiso       1.00
      F140          F  0.1312344  0.7470365  0.0817871    0.00000       Uiso       1.00
      F141          F  0.1868372  0.8534636  0.0170190    0.00000       Uiso       1.00
      F142          F  0.2007719  0.8994021  0.0242761    0.00000       Uiso       1.00
      F143          F  0.1281336  0.8412706  0.0062883    0.00000       Uiso       1.00
      F144          F  0.1435854  0.8876792  0.0110625    0.00000       Uiso       1.00
      F145          F  0.1741747  0.7259351  0.8508323    0.00000       Uiso       1.00
      F146          F  0.1494406  0.7331876  0.8967757    0.00000       Uiso       1.00
      F147          F  0.2067337  0.7439686  0.9089170    0.00000       Uiso       1.00
      F148          F  0.2329024  0.7391993  0.8625037    0.00000       Uiso       1.00
      F149          F  0.9874965  0.6422024  0.0187019    0.00000       Uiso       1.00
      F150          F  0.0338980  0.6683919  0.0032294    0.00000       Uiso       1.00
      F151          F  0.9757991  0.7009252  0.0758940    0.00000       Uiso       1.00
      F152          F  0.0217313  0.7256800  0.0619387    0.00000       Uiso       1.00
      C342          C  0.1159346  0.7410710  0.0370277    0.00000       Uiso       1.00
      C343          C  0.1283895  0.7413627  0.0134830    0.00000       Uiso       1.00
      C344          C  0.1426222  0.7324078  0.0033906    0.00000       Uiso       1.00
      C345          C  0.1453720  0.7250501  0.0161434    0.00000       Uiso       1.00
      C346          C  0.1334620  0.7255512  0.0395423    0.00000       Uiso       1.00
      C347          C  0.1184781  0.7334443  0.0497912    0.00000       Uiso       1.00
       H73          H  0.1084270  0.7334601  0.0677430    0.00000       Uiso       1.00
       H74          H  0.1571080  0.7191483  0.0075323    0.00000       Uiso       1.00
      C348          C  0.1338060  0.7757954  0.0034411    0.00000       Uiso       1.00
      C349          C  0.1340916  0.7871656  0.9909859    0.00000       Uiso       1.00
      C350          C  0.1427669  0.7889072  0.0176701    0.00000       Uiso       1.00
      C351          C  0.1501258  0.8117733  0.0204167    0.00000       Uiso       1.00
      C352          C  0.1496196  0.8227503  0.0085067    0.00000       Uiso       1.00
      C353          C  0.1417194  0.8101049  0.9935260    0.00000       Uiso       1.00
       H75          H  0.1416993  0.8179810  0.9834749    0.00000       Uiso       1.00
       H76          H  0.1560326  0.8208130  0.0321501    0.00000       Uiso       1.00
      C354          C  0.0993758  0.7367266  0.0088728    0.00000       Uiso       1.00
      C355          C  0.0880054  0.7131824  0.0091637    0.00000       Uiso       1.00
      C356          C  0.0862679  0.7468069  0.0178397    0.00000       Uiso       1.00
      C357          C  0.0634051  0.7340426  0.0252088    0.00000       Uiso       1.00
      C358          C  0.0524279  0.7106440  0.0247073    0.00000       Uiso       1.00
      C359          C  0.0650695  0.7004075  0.0168017    0.00000       Uiso       1.00
       H77          H  0.0571935  0.6824567  0.0167849    0.00000       Uiso       1.00
       H78          H  0.0543680  0.7426444  0.0311199    0.00000       Uiso       1.00
      C360          C  0.1384284  0.7467833  0.9744251    0.00000       Uiso       1.00
      C361          C  0.1619677  0.7592484  0.9630443    0.00000       Uiso       1.00
      C362          C  0.1283424  0.7325464  0.9613217    0.00000       Uiso       1.00
      C363          C  0.1410964  0.7298024  0.9384531    0.00000       Uiso       1.00
      C364          C  0.1644900  0.7417225  0.9274657    0.00000       Uiso       1.00
      C365          C  0.1747323  0.7567106  0.9401028    0.00000       Uiso       1.00
       H79          H  0.1926796  0.7667693  0.9322188    0.00000       Uiso       1.00
       H80          H  0.1324905  0.7180629  0.9294199    0.00000       Uiso       1.00
      F153          F  0.0998749  0.7493135  0.0487794    0.00000       Uiso       1.00
      F154          F  0.1737122  0.7753129  0.9756041    0.00000       Uiso       1.00
      F155          F  0.1258422  0.7745971  0.9749297    0.00000       Uiso       1.00
      F156          F  0.1005702  0.7014436  0.0009083    0.00000       Uiso       1.00
      F157          F  0.0959918  0.7714264  0.0200907    0.00000       Uiso       1.00
      F158          F  0.1552576  0.7301577  0.9787697    0.00000       Uiso       1.00
      F159          F  0.1037272  0.7198999  0.9710563    0.00000       Uiso       1.00
      F160          F  0.1450219  0.7791843  0.0303054    0.00000       Uiso       1.00
      C366          C  0.0000000  0.2495517  0.2499991    0.00000       Uiso       1.00
      C367          C  0.0711784  0.4256944  0.2191458    0.00000       Uiso       1.00
      C368          C  0.0758009  0.4177447  0.2296431    0.00000       Uiso       1.00
      C369          C  0.0906869  0.4331924  0.2377900    0.00000       Uiso       1.00
      C370          C  0.1010615  0.4563150  0.2352175    0.00000       Uiso       1.00
      C371          C  0.0966397  0.4642646  0.2244771    0.00000       Uiso       1.00
      C372          C  0.0816322  0.4488222  0.2164623    0.00000       Uiso       1.00
       H81          H  0.0594840  0.4141744  0.2130544    0.00000       Uiso       1.00
       H82          H  0.0942663  0.4273387  0.2461490    0.00000       Uiso       1.00
      C373          C  0.8872519  0.1571595  0.1945543    0.00000       Uiso       1.00
      C374          C  0.8641825  0.1445873  0.2096741    0.00000       Uiso       1.00
      C375          C  0.8948371  0.1565979  0.1715214    0.00000       Uiso       1.00
      C376          C  0.8795167  0.1438498  0.1637193    0.00000       Uiso       1.00
      C377          C  0.8564048  0.1314784  0.1788815    0.00000       Uiso       1.00
      C378          C  0.8488249  0.1319132  0.2019038    0.00000       Uiso       1.00
       H83          H  0.8579165  0.1444128  0.2274599    0.00000       Uiso       1.00
       H84          H  0.9126292  0.1660309  0.1595831    0.00000       Uiso       1.00
      C379          C  0.9241993  0.2291954  0.4181919    0.00000       Uiso       1.00
      C380          C  0.9288219  0.2186982  0.4261416    0.00000       Uiso       1.00
      C381          C  0.9093133  0.2373423  0.4336395    0.00000       Uiso       1.00
      C382          C  0.8989387  0.2347698  0.4567621    0.00000       Uiso       1.00
      C383          C  0.9033605  0.2240294  0.4647118    0.00000       Uiso       1.00
      C384          C  0.9183680  0.2160147  0.4492694    0.00000       Uiso       1.00
       H85          H  0.9405162  0.2126068  0.4146216    0.00000       Uiso       1.00
       H86          H  0.9057339  0.2457013  0.4277859    0.00000       Uiso       1.00
      C385          C  0.1127484  0.1941073  0.1576071    0.00000       Uiso       1.00
      C386          C  0.1358179  0.2092271  0.1450350    0.00000       Uiso       1.00
      C387          C  0.1051631  0.1710744  0.1570455    0.00000       Uiso       1.00
      C388          C  0.1204837  0.1632723  0.1442975    0.00000       Uiso       1.00
      C389          C  0.1435955  0.1784346  0.1319261    0.00000       Uiso       1.00
      C390          C  0.1511754  0.2014569  0.1323610    0.00000       Uiso       1.00
       H87          H  0.1420837  0.2270130  0.1448605    0.00000       Uiso       1.00
       H88          H  0.0873711  0.1591360  0.1664785    0.00000       Uiso       1.00
      F161          F  0.8880152  0.1436632  0.1394274    0.00000       Uiso       1.00
      F162          F  0.8833318  0.2434549  0.4725555    0.00000       Uiso       1.00
      F163          F  0.1119851  0.1389803  0.1441108    0.00000       Uiso       1.00
      F164          F  0.1166683  0.4721085  0.2439027    0.00000       Uiso       1.00
      F165          F  0.9234935  0.2048142  0.4570921    0.00000       Uiso       1.00
      F166          F  0.0765067  0.4566450  0.2052618    0.00000       Uiso       1.00
      F167          F  0.1753241  0.2177829  0.1194128    0.00000       Uiso       1.00
      F168          F  0.8246762  0.1189649  0.2182297    0.00000       Uiso       1.00
      C391          C  0.0325206  0.3555997  0.2397978    0.00000       Uiso       1.00
      C392          C  0.0439688  0.3466545  0.2385335    0.00000       Uiso       1.00
      C393          C  0.0660335  0.3613535  0.2341503    0.00000       Uiso       1.00
      C394          C  0.0763513  0.3841977  0.2310470    0.00000       Uiso       1.00
      C395          C  0.0648260  0.3932010  0.2325336    0.00000       Uiso       1.00
      C396          C  0.0427166  0.3785077  0.2369658    0.00000       Uiso       1.00
      C397          C  0.9354004  0.1964178  0.2174961    0.00000       Uiso       1.00
      C398          C  0.9162714  0.1760241  0.2276798    0.00000       Uiso       1.00
      C399          C  0.9383828  0.2037836  0.1998148    0.00000       Uiso       1.00
      C400          C  0.9227532  0.1912571  0.1926001    0.00000       Uiso       1.00
      C401          C  0.9037113  0.1707284  0.2026387    0.00000       Uiso       1.00
      C402          C  0.9007275  0.1633122  0.2203158    0.00000       Uiso       1.00
      C403          C  0.9560313  0.2380857  0.3471017    0.00000       Uiso       1.00
      C404          C  0.9674796  0.2393502  0.3560470    0.00000       Uiso       1.00
      C405          C  0.9339666  0.2337024  0.3618006    0.00000       Uiso       1.00
      C406          C  0.9236488  0.2305992  0.3846448    0.00000       Uiso       1.00
      C407          C  0.9351740  0.2320859  0.3936482    0.00000       Uiso       1.00
      C408          C  0.9572836  0.2365182  0.3789549    0.00000       Uiso       1.00
      C409          C  0.0645998  0.2170488  0.1968652    0.00000       Uiso       1.00
      C410          C  0.0837291  0.2272329  0.1764719    0.00000       Uiso       1.00
      C411          C  0.0616172  0.1993673  0.2042309    0.00000       Uiso       1.00
      C412          C  0.0772469  0.1921528  0.1917045    0.00000       Uiso       1.00
      C413          C  0.0962890  0.2021916  0.1711760    0.00000       Uiso       1.00
      C414          C  0.0992730  0.2198689  0.1637600    0.00000       Uiso       1.00
      F169          F  0.0999486  0.3987760  0.2258339    0.00000       Uiso       1.00
      F170          F  0.0787742  0.3528408  0.2330659    0.00000       Uiso       1.00
      F171          F  0.0295343  0.3870588  0.2390934    0.00000       Uiso       1.00
      F172          F  0.0093243  0.3406525  0.2438421    0.00000       Uiso       1.00
      F173          F  0.9585518  0.2250372  0.1881586    0.00000       Uiso       1.00
      F174          F  0.9265590  0.2002761  0.1742160    0.00000       Uiso       1.00
      F175          F  0.9120667  0.1677750  0.2468317    0.00000       Uiso       1.00
      F176          F  0.8811216  0.1415786  0.2313703    0.00000       Uiso       1.00
      F177          F  0.0734408  0.1737684  0.2007234    0.00000       Uiso       1.00
      F178          F  0.0414480  0.1877108  0.2254842    0.00000       Uiso       1.00
      F179          F  0.0879339  0.2463850  0.1682229    0.00000       Uiso       1.00
      F180          F  0.1188789  0.2309237  0.1420266    0.00000       Uiso       1.00
      F181          F  0.9704658  0.2386459  0.3875062    0.00000       Uiso       1.00
      F182          F  0.9906758  0.2433945  0.3410998    0.00000       Uiso       1.00
      F183          F  0.9000515  0.2253862  0.3992231    0.00000       Uiso       1.00
      F184          F  0.9212259  0.2326180  0.3532878    0.00000       Uiso       1.00
      C415          C  0.0000141  0.2865546  0.2590977    0.00000       Uiso       1.00
      C416          C  0.0121824  0.2751785  0.2466272    0.00000       Uiso       1.00
      C417          C  0.0353642  0.2882841  0.2323959    0.00000       Uiso       1.00
      C418          C  0.0454615  0.3111490  0.2296620    0.00000       Uiso       1.00
      C419          C  0.0330454  0.3221312  0.2415874    0.00000       Uiso       1.00
      C420          C  0.0101741  0.3094928  0.2565702    0.00000       Uiso       1.00
       H89          H  0.0001037  0.3173733  0.2666328    0.00000       Uiso       1.00
       H90          H  0.0630952  0.3201835  0.2179263    0.00000       Uiso       1.00
      C421          C  0.9831838  0.2361073  0.2411887    0.00000       Uiso       1.00
      C422          C  0.9721100  0.2125629  0.2408863    0.00000       Uiso       1.00
      C423          C  0.9790283  0.2461836  0.2322387    0.00000       Uiso       1.00
      C424          C  0.9635268  0.2334160  0.2248752    0.00000       Uiso       1.00
      C425          C  0.9520542  0.2100177  0.2253656    0.00000       Uiso       1.00
      C426          C  0.9568042  0.1997847  0.2332539    0.00000       Uiso       1.00
       H91          H  0.9489161  0.1818338  0.2332615    0.00000       Uiso       1.00
       H92          H  0.9603902  0.2420152  0.2189775    0.00000       Uiso       1.00
      C427          C  0.9878177  0.2461796  0.2756258    0.00000       Uiso       1.00
      C428          C  0.9999861  0.2586500  0.2870019    0.00000       Uiso       1.00
      C429          C  0.9646360  0.2319481  0.2887313    0.00000       Uiso       1.00
      C430          C  0.9545387  0.2292142  0.3115962    0.00000       Uiso       1.00
      C431          C  0.9669548  0.2411396  0.3225784    0.00000       Uiso       1.00
      C432          C  0.9898261  0.2561224  0.3099401    0.00000       Uiso       1.00
       H93          H  0.9998965  0.2661849  0.3178206    0.00000       Uiso       1.00
       H94          H  0.9369050  0.2174784  0.3206306    0.00000       Uiso       1.00
      C433          C  0.0168164  0.2407414  0.2365547    0.00000       Uiso       1.00
      C434          C  0.0278907  0.2404397  0.2130103    0.00000       Uiso       1.00
      C435          C  0.0209712  0.2317905  0.2466310    0.00000       Uiso       1.00
      C436          C  0.0364726  0.2244271  0.2338634    0.00000       Uiso       1.00
      C437          C  0.0479460  0.2249183  0.2104651    0.00000       Uiso       1.00
      C438          C  0.0431966  0.2328074  0.2002321    0.00000       Uiso       1.00
       H95          H  0.0510852  0.2328156  0.1822812    0.00000       Uiso       1.00
       H96          H  0.0396087  0.2185287  0.2424627    0.00000       Uiso       1.00
      F185          F  0.9757177  0.2739932  0.2751569    0.00000       Uiso       1.00
      F186          F  0.0235670  0.2486774  0.2012752    0.00000       Uiso       1.00
      F187          F  0.9764343  0.2008278  0.2491234    0.00000       Uiso       1.00
      F188          F  0.0242825  0.2747092  0.2744406    0.00000       Uiso       1.00
      F189          F  0.9497461  0.2192968  0.2790027    0.00000       Uiso       1.00
      F190          F  0.0502543  0.2785557  0.2197446    0.00000       Uiso       1.00
      F191          F  0.0090035  0.2295512  0.2712494    0.00000       Uiso       1.00
      F192          F  0.9909953  0.2708021  0.2300004    0.00000       Uiso       1.00
      C439          C  0.6204590  0.5804009  0.6517220    0.00000       Uiso       1.00
      C440          C  0.6253583  0.5754941  0.6641061    0.00000       Uiso       1.00
      C441          C  0.6187205  0.5536048  0.6664802    0.00000       Uiso       1.00
      C442          C  0.6229386  0.5490437  0.6797645    0.00000       Uiso       1.00
      C443          C  0.6325938  0.5660341  0.6921763    0.00000       Uiso       1.00
      C444          C  0.6389145  0.5879248  0.6898156    0.00000       Uiso       1.00
      C445          C  0.6370893  0.5932342  0.6746284    0.00000       Uiso       1.00
        O1          O  0.6083217  0.5650252  0.6412399    0.00000       Uiso       1.00
       H97          H  0.6440504  0.6007051  0.7008227    0.00000       Uiso       1.00
      C446          C  0.7229979  0.7277589  0.7103238    0.00000       Uiso       1.00
      C447          C  0.7106194  0.7104877  0.7005222    0.00000       Uiso       1.00
      C448          C  0.7082588  0.7148395  0.6853275    0.00000       Uiso       1.00
      C449          C  0.6950842  0.6973467  0.6763803    0.00000       Uiso       1.00
      C450          C  0.6827818  0.6752214  0.6835397    0.00000       Uiso       1.00
      C451          C  0.6850823  0.6712301  0.6991493    0.00000       Uiso       1.00
      C452          C  0.7001585  0.6882368  0.7064316    0.00000       Uiso       1.00
        O2          O  0.7334903  0.7503479  0.7069656    0.00000       Uiso       1.00
       H98          H  0.7168437  0.7318516  0.6803059    0.00000       Uiso       1.00
       H99          H  0.6945297  0.7013782  0.6639971    0.00000       Uiso       1.00
      H100          H  0.6741410  0.6550350  0.7066848    0.00000       Uiso       1.00
      C453          C  0.6645212  0.5666482  0.7549359    0.00000       Uiso       1.00
      C454          C  0.6743063  0.5888205  0.7500656    0.00000       Uiso       1.00
      C455          C  0.6894916  0.6063737  0.7567977    0.00000       Uiso       1.00
      C456          C  0.6984289  0.6284987  0.7525095    0.00000       Uiso       1.00
      C457          C  0.6912690  0.6336426  0.7426893    0.00000       Uiso       1.00
      C458          C  0.6756781  0.6157273  0.7363675    0.00000       Uiso       1.00
      C459          C  0.6684120  0.5933695  0.7382760    0.00000       Uiso       1.00
        O3          O  0.6679920  0.5595888  0.7669778    0.00000       Uiso       1.00
      H101          H  0.6944997  0.6027854  0.7652186    0.00000       Uiso       1.00
      H102          H  0.7107984  0.6414230  0.7571180    0.00000       Uiso       1.00
      H103          H  0.6681216  0.6190933  0.7311097    0.00000       Uiso       1.00
      C460          C  0.6495150  0.5493551  0.7484149    0.00000       Uiso       1.00
      C461          C  0.6440606  0.5531600  0.7358497    0.00000       Uiso       1.00
      C462          C  0.6288398  0.5356398  0.7291228    0.00000       Uiso       1.00
      C463          C  0.6244258  0.5397896  0.7157607    0.00000       Uiso       1.00
      C464          C  0.6361843  0.5613424  0.7075723    0.00000       Uiso       1.00
      C465          C  0.6516653  0.5787309  0.7142566    0.00000       Uiso       1.00
      C466          C  0.6545106  0.5753320  0.7296891    0.00000       Uiso       1.00
        O4          O  0.6416003  0.5287292  0.7550172    0.00000       Uiso       1.00
      H104          H  0.6625311  0.5947446  0.7064033    0.00000       Uiso       1.00
      C467          C  0.7252742  0.7234986  0.7253062    0.00000       Uiso       1.00
      C468          C  0.7160190  0.7016891  0.7307563    0.00000       Uiso       1.00
      C469          C  0.7183765  0.6973625  0.7459688    0.00000       Uiso       1.00
      C470          C  0.7097012  0.6754201  0.7505412    0.00000       Uiso       1.00
      C471          C  0.6997589  0.6573606  0.7389074    0.00000       Uiso       1.00
      C472          C  0.6979005  0.6620986  0.7233567    0.00000       Uiso       1.00
      C473          C  0.7042556  0.6837857  0.7203715    0.00000       Uiso       1.00
        O5          O  0.7379071  0.7427478  0.7333513    0.00000       Uiso       1.00
      H105          H  0.7267985  0.7110839  0.7544178    0.00000       Uiso       1.00
      H106          H  0.7110283  0.6728223  0.7631015    0.00000       Uiso       1.00
      H107          H  0.6926513  0.6490385  0.7125615    0.00000       Uiso       1.00
      C474          C  0.6269798  0.6019450  0.6495004    0.00000       Uiso       1.00
      C475          C  0.6395221  0.6199521  0.6587616    0.00000       Uiso       1.00
      C476          C  0.6461909  0.6418488  0.6564153    0.00000       Uiso       1.00
      C477          C  0.6594514  0.6597053  0.6650935    0.00000       Uiso       1.00
      C478          C  0.6675673  0.6561990  0.6750374    0.00000       Uiso       1.00
      C479          C  0.6609704  0.6340467  0.6768938    0.00000       Uiso       1.00
      C480          C  0.6456494  0.6157208  0.6705254    0.00000       Uiso       1.00
        O6          O  0.6203282  0.6034421  0.6369436    0.00000       Uiso       1.00
      H108          H  0.6408762  0.6449654  0.6479936    0.00000       Uiso       1.00
      H109          H  0.6633623  0.6761826  0.6637651    0.00000       Uiso       1.00
      H110          H  0.6687572  0.6310342  0.6821436    0.00000       Uiso       1.00
        B1          B  0.6084059  0.5798302  0.6319081    0.00000       Uiso       1.00
        B2          B  0.7429591  0.7596898  0.7216327    0.00000       Uiso       1.00
        B3          B  0.6533780  0.5354490  0.7668038    0.00000       Uiso       1.00
      H111          H  0.6104084  0.5400053  0.6579174    0.00000       Uiso       1.00
      H112          H  0.6183221  0.5320647  0.6803514    0.00000       Uiso       1.00
      H113          H  0.6201925  0.5187225  0.7343481    0.00000       Uiso       1.00
      H114          H  0.6119084  0.5258959  0.7117733    0.00000       Uiso       1.00
      C481          C  0.3795406  0.6517214  0.5804010    0.00000       Uiso       1.00
      C482          C  0.3746412  0.6641054  0.5754941    0.00000       Uiso       1.00
      C483          C  0.3812791  0.6664796  0.5536049    0.00000       Uiso       1.00
      C484          C  0.3770609  0.6797638  0.5490438    0.00000       Uiso       1.00
      C485          C  0.3674058  0.6921756  0.5660341    0.00000       Uiso       1.00
      C486          C  0.3610850  0.6898148  0.5879248    0.00000       Uiso       1.00
      C487          C  0.3629102  0.6746276  0.5932342    0.00000       Uiso       1.00
        O7          O  0.3916778  0.6412393  0.5650253    0.00000       Uiso       1.00
      H115          H  0.3559491  0.7008220  0.6007051    0.00000       Uiso       1.00
      C488          C  0.2770016  0.7103228  0.7277586    0.00000       Uiso       1.00
      C489          C  0.2893801  0.7005212  0.7104875    0.00000       Uiso       1.00
      C490          C  0.2917407  0.6853265  0.7148394    0.00000       Uiso       1.00
      C491          C  0.3049153  0.6763794  0.6973465    0.00000       Uiso       1.00
      C492          C  0.3172177  0.6835389  0.6752213    0.00000       Uiso       1.00
      C493          C  0.3149173  0.6991484  0.6712300    0.00000       Uiso       1.00
      C494          C  0.2998410  0.7064307  0.6882366    0.00000       Uiso       1.00
        O8          O  0.2665091  0.7069646  0.7503476    0.00000       Uiso       1.00
      H116          H  0.2831558  0.6803049  0.7318514    0.00000       Uiso       1.00
      H117          H  0.3054698  0.6639962  0.7013781    0.00000       Uiso       1.00
      H118          H  0.3258586  0.7066840  0.6550348    0.00000       Uiso       1.00
      C495          C  0.3354783  0.7549350  0.5666482    0.00000       Uiso       1.00
      C496          C  0.3256932  0.7500647  0.5888205    0.00000       Uiso       1.00
      C497          C  0.3105079  0.7567968  0.6063736    0.00000       Uiso       1.00
      C498          C  0.3015706  0.7525086  0.6284986    0.00000       Uiso       1.00
      C499          C  0.3087305  0.7426884  0.6336424    0.00000       Uiso       1.00
      C500          C  0.3243214  0.7363667  0.6157271    0.00000       Uiso       1.00
      C501          C  0.3315875  0.7382751  0.5933694    0.00000       Uiso       1.00
        O9          O  0.3320075  0.7669771  0.5595888    0.00000       Uiso       1.00
      H119          H  0.3054999  0.7652176  0.6027852    0.00000       Uiso       1.00
      H120          H  0.2892011  0.7571171  0.6414228    0.00000       Uiso       1.00
      H121          H  0.3318779  0.7311088  0.6190932    0.00000       Uiso       1.00
      C502          C  0.3504845  0.7484142  0.5493550    0.00000       Uiso       1.00
      C503          C  0.3559389  0.7358489  0.5531599    0.00000       Uiso       1.00
      C504          C  0.3711598  0.7291222  0.5356398    0.00000       Uiso       1.00
      C505          C  0.3755737  0.7157601  0.5397896    0.00000       Uiso       1.00
      C506          C  0.3638152  0.7075716  0.5613425    0.00000       Uiso       1.00
      C507          C  0.3483343  0.7142558  0.5787309    0.00000       Uiso       1.00
      C508          C  0.3454890  0.7296883  0.5753319    0.00000       Uiso       1.00
       O10          O  0.3583992  0.7550164  0.5287292    0.00000       Uiso       1.00
      H122          H  0.3374684  0.7064025  0.5947445    0.00000       Uiso       1.00
      C509          C  0.2747253  0.7253051  0.7234983    0.00000       Uiso       1.00
      C510          C  0.2839805  0.7307553  0.7016889    0.00000       Uiso       1.00
      C511          C  0.2816230  0.7459677  0.6973624    0.00000       Uiso       1.00
      C512          C  0.2902983  0.7505403  0.6754199    0.00000       Uiso       1.00
      C513          C  0.3002406  0.7389064  0.6573604    0.00000       Uiso       1.00
      C514          C  0.3020990  0.7233557  0.6620985    0.00000       Uiso       1.00
      C515          C  0.2957439  0.7203705  0.6837855    0.00000       Uiso       1.00
       O11          O  0.2620924  0.7333502  0.7427476    0.00000       Uiso       1.00
      H123          H  0.2732010  0.7544168  0.7110837    0.00000       Uiso       1.00
      H124          H  0.2889712  0.7631006  0.6728221    0.00000       Uiso       1.00
      H125          H  0.3073482  0.7125605  0.6490384    0.00000       Uiso       1.00
      C516          C  0.3730197  0.6494997  0.6019450    0.00000       Uiso       1.00
      C517          C  0.3604775  0.6587608  0.6199521    0.00000       Uiso       1.00
      C518          C  0.3538087  0.6564145  0.6418488    0.00000       Uiso       1.00
      C519          C  0.3405482  0.6650927  0.6597053    0.00000       Uiso       1.00
      C520          C  0.3324323  0.6750366  0.6561989    0.00000       Uiso       1.00
      C521          C  0.3390291  0.6768930  0.6340467    0.00000       Uiso       1.00
      C522          C  0.3543502  0.6705247  0.6157208    0.00000       Uiso       1.00
       O12          O  0.3796712  0.6369429  0.6034421    0.00000       Uiso       1.00
      H126          H  0.3591234  0.6479928  0.6449653    0.00000       Uiso       1.00
      H127          H  0.3366372  0.6637642  0.6761826    0.00000       Uiso       1.00
      H128          H  0.3312423  0.6821427  0.6310341    0.00000       Uiso       1.00
        B4          B  0.3915938  0.6319074  0.5798302    0.00000       Uiso       1.00
        B5          B  0.2570404  0.7216316  0.7596895    0.00000       Uiso       1.00
        B6          B  0.3466215  0.7668030  0.5354490    0.00000       Uiso       1.00
      H129          H  0.3895912  0.6579168  0.5400053    0.00000       Uiso       1.00
      H130          H  0.3816775  0.6803507  0.5320647    0.00000       Uiso       1.00
      H131          H  0.3798071  0.7343474  0.5187226    0.00000       Uiso       1.00
      H132          H  0.3880912  0.7117727  0.5258959    0.00000       Uiso       1.00
      C523          C  0.1472399  0.0805138  0.5957460    0.00000       Uiso       1.00
      C524          C  0.1645058  0.0755984  0.5818396    0.00000       Uiso       1.00
      C525          C  0.1601847  0.0537087  0.5752474    0.00000       Uiso       1.00
      C526          C  0.1776714  0.0490682  0.5622069    0.00000       Uiso       1.00
      C527          C  0.1997321  0.0660225  0.5566281    0.00000       Uiso       1.00
      C528          C  0.2037016  0.0879116  0.5636622    0.00000       Uiso       1.00
      C529          C  0.1867250  0.0932726  0.5746971    0.00000       Uiso       1.00
       O13          O  0.1246748  0.0651042  0.6046745    0.00000       Uiso       1.00
      H133          H  0.1431983  0.0402780  0.5801794    0.00000       Uiso       1.00
      H134          H  0.1736912  0.0321136  0.5567468    0.00000       Uiso       1.00
      H135          H  0.2198347  0.1006799  0.5617216    0.00000       Uiso       1.00
      C530          C  0.3082351  0.2277076  0.5374463    0.00000       Uiso       1.00
      C531          C  0.2860574  0.2104393  0.5457312    0.00000       Uiso       1.00
      C532          C  0.2684940  0.2147627  0.5567154    0.00000       Uiso       1.00
      C533          C  0.2463708  0.1972744  0.5658118    0.00000       Uiso       1.00
      C534          C  0.2412639  0.1752108  0.5653415    0.00000       Uiso       1.00
      C535          C  0.2591784  0.1712393  0.5544481    0.00000       Uiso       1.00
      C536          C  0.2815111  0.1882157  0.5431356    0.00000       Uiso       1.00
       O14          O  0.3153914  0.2502774  0.5392160    0.00000       Uiso       1.00
      H136          H  0.2720513  0.2317524  0.5580900    0.00000       Uiso       1.00
      H137          H  0.2334000  0.2012559  0.5733321    0.00000       Uiso       1.00
      H138          H  0.2558141  0.1551059  0.5558739    0.00000       Uiso       1.00
      C537          C  0.2944139  0.0666665  0.4929539    0.00000       Uiso       1.00
      C538          C  0.2993249  0.0888496  0.4963273    0.00000       Uiso       1.00
      C539          C  0.3212070  0.1064132  0.4854150    0.00000       Uiso       1.00
      C540          C  0.3258437  0.1285424  0.4898746    0.00000       Uiso       1.00
      C541          C  0.3088944  0.1336564  0.5063688    0.00000       Uiso       1.00
      C542          C  0.2870133  0.1157418  0.5173711    0.00000       Uiso       1.00
      C543          C  0.2816544  0.0934014  0.5114170    0.00000       Uiso       1.00
       O15          O  0.3098210  0.0595045  0.4793032    0.00000       Uiso       1.00
      H139          H  0.3346345  0.1028521  0.4733509    0.00000       Uiso       1.00
      H140          H  0.3427918  0.1415127  0.4804352    0.00000       Uiso       1.00
      H141          H  0.2742506  0.1191131  0.5315717    0.00000       Uiso       1.00
      C544          C  0.2729611  0.0494514  0.5040432    0.00000       Uiso       1.00
      C545          C  0.2549542  0.0532508  0.5181241    0.00000       Uiso       1.00
      C546          C  0.2330636  0.0356983  0.5290287    0.00000       Uiso       1.00
      C547          C  0.2152109  0.0397890  0.5421608    0.00000       Uiso       1.00
      C548          C  0.2187302  0.0613307  0.5435663    0.00000       Uiso       1.00
      C549          C  0.2408731  0.0787368  0.5322495    0.00000       Uiso       1.00
      C550          C  0.2591826  0.0753752  0.5209563    0.00000       Uiso       1.00
       O16          O  0.2715709  0.0288068  0.4989813    0.00000       Uiso       1.00
      H142          H  0.2299244  0.0188423  0.5273738    0.00000       Uiso       1.00
      H143          H  0.1987091  0.0259213  0.5509799    0.00000       Uiso       1.00
      H144          H  0.2438686  0.0947601  0.5310721    0.00000       Uiso       1.00
      C551          C  0.3254505  0.2234655  0.5270683    0.00000       Uiso       1.00
      C552          C  0.3216559  0.2016576  0.5231281    0.00000       Uiso       1.00
      C553          C  0.3392085  0.1973149  0.5121274    0.00000       Uiso       1.00
      C554          C  0.3351218  0.1753694  0.5073932    0.00000       Uiso       1.00
      C555          C  0.3135829  0.1573490  0.5123190    0.00000       Uiso       1.00
      C556          C  0.2961766  0.1620904  0.5231596    0.00000       Uiso       1.00
      C557          C  0.2995360  0.1837645  0.5301892    0.00000       Uiso       1.00
       O17          O  0.3460899  0.2427172  0.5206183    0.00000       Uiso       1.00
      H145          H  0.3560615  0.2110300  0.5073328    0.00000       Uiso       1.00
      H146          H  0.3489901  0.1727322  0.4996992    0.00000       Uiso       1.00
      H147          H  0.2801537  0.1490632  0.5249794    0.00000       Uiso       1.00
      C558          C  0.1514803  0.1019745  0.6025960    0.00000       Uiso       1.00
      C559          C  0.1732831  0.1199844  0.5948612    0.00000       Uiso       1.00
      C560          C  0.1776242  0.1418830  0.6014259    0.00000       Uiso       1.00
      C561          C  0.1995638  0.1597377  0.5926049    0.00000       Uiso       1.00
      C562          C  0.2175786  0.1562116  0.5759799    0.00000       Uiso       1.00
      C563          C  0.2128389  0.1340609  0.5694016    0.00000       Uiso       1.00
      C564          C  0.1911726  0.1157508  0.5797892    0.00000       Uiso       1.00
       O18          O  0.1322319  0.1033681  0.6167975    0.00000       Uiso       1.00
      H148          H  0.1639133  0.1450274  0.6134941    0.00000       Uiso       1.00
      H149          H  0.2022008  0.1762462  0.5987888    0.00000       Uiso       1.00
      H150          H  0.2258605  0.1310587  0.5551904    0.00000       Uiso       1.00
        B7          B  0.1153073  0.0798281  0.6180046    0.00000       Uiso       1.00
        B8          B  0.3394780  0.2596458  0.5284438    0.00000       Uiso       1.00
        B9          B  0.2951045  0.0354149  0.4832557    0.00000       Uiso       1.00
      C565          C  0.8527599  0.5957468  0.0805150    0.00000       Uiso       1.00
      C566          C  0.8354939  0.5818403  0.0755996    0.00000       Uiso       1.00
      C567          C  0.8398151  0.5752482  0.0537099    0.00000       Uiso       1.00
      C568          C  0.8223285  0.5622076  0.0490694    0.00000       Uiso       1.00
      C569          C  0.8002677  0.5566288  0.0660236    0.00000       Uiso       1.00
      C570          C  0.7962981  0.5636628  0.0879127    0.00000       Uiso       1.00
      C571          C  0.8132748  0.5746979  0.0932737    0.00000       Uiso       1.00
       O19          O  0.8753250  0.6046754  0.0651055    0.00000       Uiso       1.00
      H151          H  0.8568016  0.5801803  0.0402793    0.00000       Uiso       1.00
      H152          H  0.8263087  0.5567477  0.0321147    0.00000       Uiso       1.00
      H153          H  0.7801651  0.5617222  0.1006810    0.00000       Uiso       1.00
      C572          C  0.6917647  0.5374466  0.2277084    0.00000       Uiso       1.00
      C573          C  0.7139423  0.5457316  0.2104401    0.00000       Uiso       1.00
      C574          C  0.7315058  0.5567159  0.2147636    0.00000       Uiso       1.00
      C575          C  0.7536289  0.5658123  0.1972754    0.00000       Uiso       1.00
      C576          C  0.7587359  0.5653421  0.1752117    0.00000       Uiso       1.00
      C577          C  0.7408213  0.5544486  0.1712402    0.00000       Uiso       1.00
      C578          C  0.7184886  0.5431361  0.1882166    0.00000       Uiso       1.00
       O20          O  0.6846083  0.5392163  0.2502782    0.00000       Uiso       1.00
      H154          H  0.7279484  0.5580904  0.2317533    0.00000       Uiso       1.00
      H155          H  0.7665998  0.5733327  0.2012569    0.00000       Uiso       1.00
      H156          H  0.7441856  0.5558744  0.1551069    0.00000       Uiso       1.00
      C579          C  0.7055860  0.4929544  0.0666673    0.00000       Uiso       1.00
      C580          C  0.7006749  0.4963278  0.0888503    0.00000       Uiso       1.00
      C581          C  0.6787928  0.4854154  0.1064140    0.00000       Uiso       1.00
      C582          C  0.6741561  0.4898750  0.1285431    0.00000       Uiso       1.00
      C583          C  0.6911054  0.5063691  0.1336572    0.00000       Uiso       1.00
      C584          C  0.7129865  0.5173715  0.1157426    0.00000       Uiso       1.00
      C585          C  0.7183454  0.5114175  0.0934023    0.00000       Uiso       1.00
       O21          O  0.6901789  0.4793036  0.0595053    0.00000       Uiso       1.00
      H157          H  0.6653653  0.4733512  0.1028528    0.00000       Uiso       1.00
      H158          H  0.6572080  0.4804354  0.1415134    0.00000       Uiso       1.00
      H159          H  0.7257491  0.5315722  0.1191140    0.00000       Uiso       1.00
      C586          C  0.7270388  0.5040436  0.0494523    0.00000       Uiso       1.00
      C587          C  0.7450456  0.5181246  0.0532517    0.00000       Uiso       1.00
      C588          C  0.7669362  0.5290293  0.0356993    0.00000       Uiso       1.00
      C589          C  0.7847890  0.5421615  0.0397900    0.00000       Uiso       1.00
      C590          C  0.7812696  0.5435669  0.0613318    0.00000       Uiso       1.00
      C591          C  0.7591268  0.5322500  0.0787377    0.00000       Uiso       1.00
      C592          C  0.7408172  0.5209569  0.0753761    0.00000       Uiso       1.00
       O22          O  0.7284290  0.4989819  0.0288076    0.00000       Uiso       1.00
      H160          H  0.7700754  0.5273744  0.0188433    0.00000       Uiso       1.00
      H161          H  0.8012907  0.5509806  0.0259224    0.00000       Uiso       1.00
      H162          H  0.7561312  0.5310727  0.0947610    0.00000       Uiso       1.00
      C593          C  0.6745492  0.5270686  0.2234663    0.00000       Uiso       1.00
      C594          C  0.6783439  0.5231284  0.2016584    0.00000       Uiso       1.00
      C595          C  0.6607913  0.5121277  0.1973156    0.00000       Uiso       1.00
      C596          C  0.6648780  0.5073934  0.1753701    0.00000       Uiso       1.00
      C597          C  0.6864169  0.5123194  0.1573498    0.00000       Uiso       1.00
      C598          C  0.7038232  0.5231600  0.1620912    0.00000       Uiso       1.00
      C599          C  0.7004638  0.5301895  0.1837653    0.00000       Uiso       1.00
       O23          O  0.6539099  0.5206186  0.2427179    0.00000       Uiso       1.00
      H163          H  0.6439382  0.5073330  0.2110307    0.00000       Uiso       1.00
      H164          H  0.6510096  0.4996994  0.1727329    0.00000       Uiso       1.00
      H165          H  0.7198461  0.5249798  0.1490641    0.00000       Uiso       1.00
      C600          C  0.8485194  0.6025968  0.1019757    0.00000       Uiso       1.00
      C601          C  0.8267167  0.5948619  0.1199856    0.00000       Uiso       1.00
      C602          C  0.8223756  0.6014266  0.1418841    0.00000       Uiso       1.00
      C603          C  0.8004360  0.5926056  0.1597388    0.00000       Uiso       1.00
      C604          C  0.7824211  0.5759805  0.1562126    0.00000       Uiso       1.00
      C605          C  0.7871609  0.5694022  0.1340619    0.00000       Uiso       1.00
      C606          C  0.8088273  0.5797899  0.1157520    0.00000       Uiso       1.00
       O24          O  0.8677679  0.6167984  0.1033694    0.00000       Uiso       1.00
      H166          H  0.8360865  0.6134949  0.1450286    0.00000       Uiso       1.00
      H167          H  0.7977989  0.5987895  0.1762473    0.00000       Uiso       1.00
      H168          H  0.7741393  0.5551910  0.1310597    0.00000       Uiso       1.00
       B10          B  0.8846925  0.6180055  0.0798294    0.00000       Uiso       1.00
       B11          B  0.6605218  0.5284440  0.2596466    0.00000       Uiso       1.00
       B12          B  0.7048954  0.4832561  0.0354157    0.00000       Uiso       1.00
      C607          C  0.3530161  0.1830418  0.9952412    0.00000       Uiso       1.00
      C608          C  0.3357431  0.1608440  0.0001285    0.00000       Uiso       1.00
      C609          C  0.3400142  0.1432201  0.9934728    0.00000       Uiso       1.00
      C610          C  0.3225216  0.1211487  0.9976791    0.00000       Uiso       1.00
      C611          C  0.3004575  0.1160626  0.0073396    0.00000       Uiso       1.00
      C612          C  0.2964896  0.1339916  0.0136781    0.00000       Uiso       1.00
      C613          C  0.3134920  0.1563210  0.0118653    0.00000       Uiso       1.00
       O25          O  0.3756321  0.1902954  0.9831004    0.00000       Uiso       1.00
      H169          H  0.2803479  0.1306215  0.0188182    0.00000       Uiso       1.00
      C614          C  0.1918823  0.1691870  0.0978396    0.00000       Uiso       1.00
      C615          C  0.2140602  0.1741060  0.0854556    0.00000       Uiso       1.00
      C616          C  0.2316056  0.1960209  0.0831069    0.00000       Uiso       1.00
      C617          C  0.2537253  0.2006597  0.0699266    0.00000       Uiso       1.00
      C618          C  0.2588759  0.1836798  0.0576066    0.00000       Uiso       1.00
      C619          C  0.2409758  0.1617706  0.0598954    0.00000       Uiso       1.00
      C620          C  0.2186195  0.1564085  0.0749769    0.00000       Uiso       1.00
       O26          O  0.1847411  0.1846385  0.1083491    0.00000       Uiso       1.00
      H170          H  0.2280364  0.2094681  0.0917054    0.00000       Uiso       1.00
      H171          H  0.2666555  0.2176349  0.0693815    0.00000       Uiso       1.00
      H172          H  0.2443872  0.1489826  0.0489412    0.00000       Uiso       1.00
      C621          C  0.2058127  0.0219472  0.0392250    0.00000       Uiso       1.00
      C622          C  0.2008900  0.0392024  0.0490278    0.00000       Uiso       1.00
      C623          C  0.1789747  0.0348284  0.0642190    0.00000       Uiso       1.00
      C624          C  0.1743177  0.0523022  0.0731739    0.00000       Uiso       1.00
      C625          C  0.1912879  0.0744337  0.0660263    0.00000       Uiso       1.00
      C626          C  0.2131988  0.0784410  0.0504292    0.00000       Uiso       1.00
      C627          C  0.2185641  0.0614433  0.0431455    0.00000       Uiso       1.00
       O27          O  0.1903100  0.9993678  0.0426826    0.00000       Uiso       1.00
      H173          H  0.1655534  0.0178052  0.0692178    0.00000       Uiso       1.00
      H174          H  0.1573415  0.0482408  0.0855475    0.00000       Uiso       1.00
      H175          H  0.2260060  0.0946272  0.0428815    0.00000       Uiso       1.00
      C628          C  0.2273378  0.0261908  0.0242131    0.00000       Uiso       1.00
      C629          C  0.2453478  0.0480235  0.0187702    0.00000       Uiso       1.00
      C630          C  0.2672934  0.0524608  0.0035435    0.00000       Uiso       1.00
      C631          C  0.2850590  0.0743942  0.9991412    0.00000       Uiso       1.00
      C632          C  0.2814816  0.0923758  0.0109174    0.00000       Uiso       1.00
      C633          C  0.2593184  0.0875891  0.0264040    0.00000       Uiso       1.00
      C634          C  0.2410503  0.0659041  0.0292380    0.00000       Uiso       1.00
       O28          O  0.2286588  0.0068779  0.0162805    0.00000       Uiso       1.00
      H176          H  0.2563001  0.1005888  0.0372828    0.00000       Uiso       1.00
      C635          C  0.1746332  0.1476603  0.1001044    0.00000       Uiso       1.00
      C636          C  0.1784463  0.1296577  0.0908314    0.00000       Uiso       1.00
      C637          C  0.1608861  0.1077533  0.0931771    0.00000       Uiso       1.00
      C638          C  0.1649970  0.0899155  0.0844840    0.00000       Uiso       1.00
      C639          C  0.1865715  0.0934417  0.0745353    0.00000       Uiso       1.00
      C640          C  0.2039708  0.1155968  0.0726889    0.00000       Uiso       1.00
      C641          C  0.2005926  0.1339123  0.0790619    0.00000       Uiso       1.00
       O29          O  0.1539558  0.1462223  0.1127452    0.00000       Uiso       1.00
      H177          H  0.1440165  0.1045959  0.1016038    0.00000       Uiso       1.00
      H178          H  0.1511169  0.0734240  0.0858026    0.00000       Uiso       1.00
      H179          H  0.2200138  0.1185882  0.0674353    0.00000       Uiso       1.00
      C642          C  0.3487098  0.2002850  0.0017794    0.00000       Uiso       1.00
      C643          C  0.3269081  0.1964789  0.0143280    0.00000       Uiso       1.00
      C644          C  0.3225777  0.2140512  0.0210144    0.00000       Uiso       1.00
      C645          C  0.3006408  0.2099591  0.0342811    0.00000       Uiso       1.00
      C646          C  0.2825907  0.1883849  0.0423858    0.00000       Uiso       1.00
      C647          C  0.2873389  0.1709753  0.0357712    0.00000       Uiso       1.00
      C648          C  0.3090268  0.1743484  0.0204435    0.00000       Uiso       1.00
       O30          O  0.3679082  0.2209987  0.9951378    0.00000       Uiso       1.00
      H180          H  0.3363067  0.2309103  0.0157087    0.00000       Uiso       1.00
      H181          H  0.2980522  0.2238529  0.0382056    0.00000       Uiso       1.00
      H182          H  0.2743095  0.1549203  0.0435494    0.00000       Uiso       1.00
       B13          B  0.3848692  0.2143523  0.9832019    0.00000       Uiso       1.00
       B14          B  0.1606119  0.1698339  0.1178154    0.00000       Uiso       1.00
       B15          B  0.2051022  0.9900225  0.0280537    0.00000       Uiso       1.00
      H183          H  0.3568876  0.1465030  0.9851562    0.00000       Uiso       1.00
      H184          H  0.3265570  0.1082012  0.9930491    0.00000       Uiso       1.00
      H185          H  0.2707209  0.0389668  0.9948825    0.00000       Uiso       1.00
      H186          H  0.3015627  0.0770128  0.9866187    0.00000       Uiso       1.00
      C649          C  0.8821975  0.2125870  0.5218126    0.00000       Uiso       1.00
      C650          C  0.8788416  0.2043105  0.5390726    0.00000       Uiso       1.00
      C651          C  0.8897598  0.1933390  0.5347368    0.00000       Uiso       1.00
      C652          C  0.8853178  0.1842505  0.5522172    0.00000       Uiso       1.00
      C653          C  0.8688357  0.1847154  0.5742857    0.00000       Uiso       1.00
      C654          C  0.8578272  0.1955961  0.5782700    0.00000       Uiso       1.00
      C655          C  0.8637639  0.2069013  0.5613008    0.00000       Uiso       1.00
       O31          O  0.8958349  0.2108202  0.4992398    0.00000       Uiso       1.00
      H187          H  0.9018149  0.1919683  0.5177437    0.00000       Uiso       1.00
      H188          H  0.8947613  0.1767402  0.5482261    0.00000       Uiso       1.00
      H189          H  0.8436354  0.1941655  0.5944081    0.00000       Uiso       1.00
      C656          C  0.7794824  0.2570394  0.6828933    0.00000       Uiso       1.00
      C657          C  0.7933766  0.2536700  0.6607064    0.00000       Uiso       1.00
      C658          C  0.7999508  0.2645755  0.6431499    0.00000       Uiso       1.00
      C659          C  0.8129797  0.2601199  0.6210169    0.00000       Uiso       1.00
      C660          C  0.8185642  0.2436360  0.6158926    0.00000       Uiso       1.00
      C661          C  0.8115481  0.2326402  0.6338005    0.00000       Uiso       1.00
      C662          C  0.8005251  0.2385914  0.6561434    0.00000       Uiso       1.00
       O32          O  0.7705503  0.2706791  0.6900658    0.00000       Uiso       1.00
      H190          H  0.7950136  0.2766312  0.6467201    0.00000       Uiso       1.00
      H191          H  0.8184258  0.2695543  0.6080521    0.00000       Uiso       1.00
      H192          H  0.8134929  0.2184462  0.6304227    0.00000       Uiso       1.00
      C663          C  0.8378418  0.1543379  0.6689541    0.00000       Uiso       1.00
      C664          C  0.8295511  0.1682328  0.6738813    0.00000       Uiso       1.00
      C665          C  0.8185784  0.1748218  0.6957741    0.00000       Uiso       1.00
      C666          C  0.8094764  0.1878506  0.7004265    0.00000       Uiso       1.00
      C667          C  0.8099290  0.1934200  0.6834821    0.00000       Uiso       1.00
      C668          C  0.8208109  0.1863890  0.6615899    0.00000       Uiso       1.00
      C669          C  0.8321287  0.1753666  0.6562160    0.00000       Uiso       1.00
       O33          O  0.8360894  0.1454187  0.6843540    0.00000       Uiso       1.00
      H193          H  0.8172174  0.1698967  0.7091978    0.00000       Uiso       1.00
      H194          H  0.8019653  0.1933089  0.7173828    0.00000       Uiso       1.00
      H195          H  0.8193720  0.1883217  0.6488296    0.00000       Uiso       1.00
      C670          C  0.8482084  0.1474911  0.6474906    0.00000       Uiso       1.00
      C671          C  0.8521308  0.1552180  0.6294889    0.00000       Uiso       1.00
      C672          C  0.8631198  0.1486566  0.6075875    0.00000       Uiso       1.00
      C673          C  0.8678364  0.1574700  0.5897405    0.00000       Uiso       1.00
      C674          C  0.8629041  0.1740847  0.5932770    0.00000       Uiso       1.00
      C675          C  0.8520752  0.1806598  0.6154305    0.00000       Uiso       1.00
      C676          C  0.8450634  0.1702787  0.6337339    0.00000       Uiso       1.00
       O34          O  0.8546667  0.1333012  0.6460848    0.00000       Uiso       1.00
      H196          H  0.8679193  0.1365968  0.6044354    0.00000       Uiso       1.00
      H197          H  0.8755218  0.1512884  0.5732299    0.00000       Uiso       1.00
      H198          H  0.8502508  0.1948642  0.6184396    0.00000       Uiso       1.00
      C677          C  0.7726498  0.2459567  0.7001019    0.00000       Uiso       1.00
      C678          C  0.7803910  0.2318871  0.6962911    0.00000       Uiso       1.00
      C679          C  0.7738439  0.2209895  0.7138369    0.00000       Uiso       1.00
      C680          C  0.7826707  0.2078689  0.7097346    0.00000       Uiso       1.00
      C681          C  0.7992843  0.2064690  0.6881870    0.00000       Uiso       1.00
      C682          C  0.8058450  0.2177791  0.6707879    0.00000       Uiso       1.00
      C683          C  0.7954510  0.2290596  0.6741620    0.00000       Uiso       1.00
       O35          O  0.7584583  0.2510127  0.7207520    0.00000       Uiso       1.00
      H199          H  0.7617849  0.2226409  0.7306968    0.00000       Uiso       1.00
      H200          H  0.7765003  0.1990546  0.7235978    0.00000       Uiso       1.00
      H201          H  0.8200476  0.2189614  0.6547596    0.00000       Uiso       1.00
      C684          C  0.8711025  0.2229524  0.5260672    0.00000       Uiso       1.00
      C685          C  0.8570328  0.2268881  0.5478798    0.00000       Uiso       1.00
      C686          C  0.8461220  0.2378758  0.5522355    0.00000       Uiso       1.00
      C687          C  0.8330013  0.2426061  0.5741852    0.00000       Uiso       1.00
      C688          C  0.8316137  0.2376895  0.5921963    0.00000       Uiso       1.00
      C689          C  0.8429365  0.2268618  0.5874419    0.00000       Uiso       1.00
      C690          C  0.8542184  0.2198357  0.5657641    0.00000       Uiso       1.00
       O36          O  0.8761465  0.2293952  0.5068222    0.00000       Uiso       1.00
      H202          H  0.8477626  0.2426637  0.5385282    0.00000       Uiso       1.00
      H203          H  0.8241768  0.2502897  0.5768331    0.00000       Uiso       1.00
      H204          H  0.8441269  0.2250499  0.6004612    0.00000       Uiso       1.00
       B16          B  0.8918675  0.2215797  0.4898837    0.00000       Uiso       1.00
       B17          B  0.7572377  0.2667272  0.7141547    0.00000       Uiso       1.00
       B18          B  0.8468594  0.1320980  0.6696208    0.00000       Uiso       1.00
      C691          C  0.7947887  0.0402362  0.0223353    0.00000       Uiso       1.00
      C692          C  0.7997088  0.0500502  0.0396154    0.00000       Uiso       1.00
      C693          C  0.8215972  0.0652997  0.0353477    0.00000       Uiso       1.00
      C694          C  0.8261720  0.0740868  0.0528460    0.00000       Uiso       1.00
      C695          C  0.8091971  0.0667614  0.0749117    0.00000       Uiso       1.00
      C696          C  0.7873071  0.0511932  0.0788755    0.00000       Uiso       1.00
      C697          C  0.7819833  0.0440510  0.0618691    0.00000       Uiso       1.00
       O37          O  0.8101490  0.0434643  0.9997152    0.00000       Uiso       1.00
      H205          H  0.7745389  0.0435560  0.0950160    0.00000       Uiso       1.00
      C698          C  0.6475292  0.9954890  0.1834953    0.00000       Uiso       1.00
      C699          C  0.6647859  0.0003720  0.1613141    0.00000       Uiso       1.00
      C700          C  0.6604195  0.9936515  0.1437646    0.00000       Uiso       1.00
      C701          C  0.6778985  0.9979599  0.1216410    0.00000       Uiso       1.00
      C702          C  0.7000246  0.0077807  0.1164892    0.00000       Uiso       1.00
      C703          C  0.7040308  0.0140804  0.1343933    0.00000       Uiso       1.00
      C704          C  0.6870374  0.0121600  0.1567553    0.00000       Uiso       1.00
       O38          O  0.6249419  0.9833957  0.1906357    0.00000       Uiso       1.00
      H206          H  0.6434069  0.9852260  0.1473338    0.00000       Uiso       1.00
      H207          H  0.6738556  0.9933680  0.1087085    0.00000       Uiso       1.00
      H208          H  0.7202278  0.0193328  0.1309793    0.00000       Uiso       1.00
      C705          C  0.8086534  0.0981171  0.1695849    0.00000       Uiso       1.00
      C706          C  0.7864811  0.0857322  0.1745063    0.00000       Uiso       1.00
      C707          C  0.7689407  0.0833741  0.1964273    0.00000       Uiso       1.00
      C708          C  0.7468160  0.0701884  0.2010823    0.00000       Uiso       1.00
      C709          C  0.7416601  0.0578771  0.1841035    0.00000       Uiso       1.00
      C710          C  0.7595627  0.0601917  0.1621867    0.00000       Uiso       1.00
      C711          C  0.7819189  0.0752809  0.1568249    0.00000       Uiso       1.00
       O39          O  0.8157251  0.1086544  0.1850939    0.00000       Uiso       1.00
      H209          H  0.7725389  0.0919765  0.2098547    0.00000       Uiso       1.00
      H210          H  0.7339013  0.0696413  0.2180639    0.00000       Uiso       1.00
      H211          H  0.7561886  0.0492634  0.1493713    0.00000       Uiso       1.00
      C712          C  0.8259339  0.1003945  0.1480540    0.00000       Uiso       1.00
      C713          C  0.8221155  0.0911272  0.1300375    0.00000       Uiso       1.00
      C714          C  0.8396228  0.0934167  0.1080861    0.00000       Uiso       1.00
      C715          C  0.8354591  0.0848450  0.0903141    0.00000       Uiso       1.00
      C716          C  0.8139042  0.0750522  0.0938930    0.00000       Uiso       1.00
      C717          C  0.7965285  0.0731546  0.1160622    0.00000       Uiso       1.00
      C718          C  0.7999426  0.0794070  0.1343343    0.00000       Uiso       1.00
       O40          O  0.8465622  0.1131052  0.1467352    0.00000       Uiso       1.00
      H212          H  0.7805128  0.0680081  0.1190830    0.00000       Uiso       1.00
      C719          C  0.6518037  0.0020336  0.2007483    0.00000       Uiso       1.00
      C720          C  0.6736139  0.0145861  0.1969367    0.00000       Uiso       1.00
      C721          C  0.6779551  0.0212780  0.2145009    0.00000       Uiso       1.00
      C722          C  0.6998978  0.0345434  0.2103922    0.00000       Uiso       1.00
      C723          C  0.7179425  0.0426511  0.1888169    0.00000       Uiso       1.00
      C724          C  0.7131897  0.0360467  0.1714137    0.00000       Uiso       1.00
      C725          C  0.6915028  0.0207163  0.1747879    0.00000       Uiso       1.00
       O41          O  0.6325674  0.9954261  0.2214283    0.00000       Uiso       1.00
      H213          H  0.6642451  0.0159863  0.2313719    0.00000       Uiso       1.00
      H214          H  0.7025074  0.0384746  0.2242746    0.00000       Uiso       1.00
      H215          H  0.7262378  0.0438505  0.1553719    0.00000       Uiso       1.00
      C726          C  0.7732455  0.0252149  0.0266384    0.00000       Uiso       1.00
      C727          C  0.7552524  0.0197598  0.0484432    0.00000       Uiso       1.00
      C728          C  0.7333565  0.0045338  0.0527697    0.00000       Uiso       1.00
      C729          C  0.7155139  0.9999474  0.0747105    0.00000       Uiso       1.00
      C730          C  0.7190325  0.0115780  0.0927695    0.00000       Uiso       1.00
      C731          C  0.7411835  0.0271312  0.0880252    0.00000       Uiso       1.00
      C732          C  0.7594968  0.0301264  0.0663319    0.00000       Uiso       1.00
       O42          O  0.7717342  0.0170577  0.0074327    0.00000       Uiso       1.00
      H216          H  0.7302302  0.9960963  0.0390347    0.00000       Uiso       1.00
      H217          H  0.6990371  0.9873822  0.0772952    0.00000       Uiso       1.00
      H218          H  0.7442042  0.0379364  0.1010629    0.00000       Uiso       1.00
       B19          B  0.7953358  0.0287393  0.9904716    0.00000       Uiso       1.00
       B20          B  0.6156173  0.9835333  0.2147692    0.00000       Uiso       1.00
       B21          B  0.8398582  0.1181737  0.1702995    0.00000       Uiso       1.00
      H219          H  0.8351853  0.0705797  0.0184729    0.00000       Uiso       1.00
      H220          H  0.8431495  0.0864475  0.0488141    0.00000       Uiso       1.00
      H221          H  0.8565409  0.1016851  0.1046578    0.00000       Uiso       1.00
      H222          H  0.8493436  0.0862139  0.0738054    0.00000       Uiso       1.00
      C733          C  0.1178023  0.5218113  0.2125862    0.00000       Uiso       1.00
      C734          C  0.1211582  0.5390714  0.2043097    0.00000       Uiso       1.00
      C735          C  0.1102400  0.5347355  0.1933382    0.00000       Uiso       1.00
      C736          C  0.1146819  0.5522160  0.1842497    0.00000       Uiso       1.00
      C737          C  0.1311641  0.5742846  0.1847146    0.00000       Uiso       1.00
      C738          C  0.1421725  0.5782688  0.1955953    0.00000       Uiso       1.00
      C739          C  0.1362360  0.5612996  0.2069006    0.00000       Uiso       1.00
       O43          O  0.1041649  0.4992385  0.2108193    0.00000       Uiso       1.00
      H223          H  0.0981849  0.5177425  0.1919674    0.00000       Uiso       1.00
      H224          H  0.1052384  0.5482249  0.1767394    0.00000       Uiso       1.00
      H225          H  0.1563644  0.5944069  0.1941648    0.00000       Uiso       1.00
      C740          C  0.2205173  0.6828923  0.2570389    0.00000       Uiso       1.00
      C741          C  0.2066231  0.6607054  0.2536695    0.00000       Uiso       1.00
      C742          C  0.2000488  0.6431487  0.2645750    0.00000       Uiso       1.00
      C743          C  0.1870200  0.6210157  0.2601193    0.00000       Uiso       1.00
      C744          C  0.1814355  0.6158916  0.2436354    0.00000       Uiso       1.00
      C745          C  0.1884517  0.6337994  0.2326396    0.00000       Uiso       1.00
      C746          C  0.1994746  0.6561424  0.2385909    0.00000       Uiso       1.00
       O44          O  0.2294495  0.6900648  0.2706787    0.00000       Uiso       1.00
      H226          H  0.2049860  0.6467190  0.2766307    0.00000       Uiso       1.00
      H227          H  0.1815738  0.6080509  0.2695538    0.00000       Uiso       1.00
      H228          H  0.1865069  0.6304216  0.2184457    0.00000       Uiso       1.00
      C747          C  0.1621579  0.6689530  0.1543373    0.00000       Uiso       1.00
      C748          C  0.1704486  0.6738802  0.1682322    0.00000       Uiso       1.00
      C749          C  0.1814213  0.6957731  0.1748213    0.00000       Uiso       1.00
      C750          C  0.1905234  0.7004255  0.1878501    0.00000       Uiso       1.00
      C751          C  0.1900707  0.6834810  0.1934194    0.00000       Uiso       1.00
      C752          C  0.1791888  0.6615888  0.1863884    0.00000       Uiso       1.00
      C753          C  0.1678710  0.6562149  0.1753660    0.00000       Uiso       1.00
       O45          O  0.1639104  0.6843529  0.1454181    0.00000       Uiso       1.00
      H229          H  0.1827824  0.7091967  0.1698961    0.00000       Uiso       1.00
      H230          H  0.1980344  0.7173818  0.1933084    0.00000       Uiso       1.00
      H231          H  0.1806277  0.6488284  0.1883211    0.00000       Uiso       1.00
      C754          C  0.1517913  0.6474894  0.1474904    0.00000       Uiso       1.00
      C755          C  0.1478690  0.6294878  0.1552174    0.00000       Uiso       1.00
      C756          C  0.1368800  0.6075863  0.1486558    0.00000       Uiso       1.00
      C757          C  0.1321634  0.5897393  0.1574692    0.00000       Uiso       1.00
      C758          C  0.1370956  0.5932758  0.1740839    0.00000       Uiso       1.00
      C759          C  0.1479246  0.6154294  0.1806591    0.00000       Uiso       1.00
      C760          C  0.1549363  0.6337327  0.1702780    0.00000       Uiso       1.00
       O46          O  0.1453331  0.6460837  0.1333005    0.00000       Uiso       1.00
      H232          H  0.1320806  0.6044342  0.1365960    0.00000       Uiso       1.00
      H233          H  0.1244780  0.5732287  0.1512876    0.00000       Uiso       1.00
      H234          H  0.1497490  0.6184384  0.1948635    0.00000       Uiso       1.00
      C761          C  0.2273499  0.7001008  0.2459563    0.00000       Uiso       1.00
      C762          C  0.2196087  0.6962901  0.2318867    0.00000       Uiso       1.00
      C763          C  0.2261558  0.7138360  0.2209890    0.00000       Uiso       1.00
      C764          C  0.2173290  0.7097335  0.2078684    0.00000       Uiso       1.00
      C765          C  0.2007153  0.6881860  0.2064685    0.00000       Uiso       1.00
      C766          C  0.1941547  0.6707867  0.2177785    0.00000       Uiso       1.00
      C767          C  0.2045486  0.6741610  0.2290591    0.00000       Uiso       1.00
       O47          O  0.2415414  0.7207511  0.2510123    0.00000       Uiso       1.00
      H235          H  0.2382149  0.7306958  0.2226405    0.00000       Uiso       1.00
      H236          H  0.2234994  0.7235968  0.1990542    0.00000       Uiso       1.00
      H237          H  0.1799521  0.6547586  0.2189608    0.00000       Uiso       1.00
      C768          C  0.1288974  0.5260660  0.2229516    0.00000       Uiso       1.00
      C769          C  0.1429670  0.5478786  0.2268873    0.00000       Uiso       1.00
      C770          C  0.1538778  0.5522344  0.2378751    0.00000       Uiso       1.00
      C771          C  0.1669984  0.5741841  0.2426054    0.00000       Uiso       1.00
      C772          C  0.1683860  0.5921952  0.2376889    0.00000       Uiso       1.00
      C773          C  0.1570632  0.5874407  0.2268612    0.00000       Uiso       1.00
      C774          C  0.1457813  0.5657629  0.2198350    0.00000       Uiso       1.00
       O48          O  0.1238533  0.5068210  0.2293944    0.00000       Uiso       1.00
      H238          H  0.1522372  0.5385271  0.2426630    0.00000       Uiso       1.00
      H239          H  0.1758228  0.5768319  0.2502891    0.00000       Uiso       1.00
      H240          H  0.1558728  0.6004601  0.2250492    0.00000       Uiso       1.00
       B22          B  0.1081323  0.4898824  0.2215789    0.00000       Uiso       1.00
       B23          B  0.2427620  0.7141538  0.2667269    0.00000       Uiso       1.00
       B24          B  0.1531403  0.6696196  0.1320974    0.00000       Uiso       1.00
