data_18
_audit_creation_date              0000-00-00
_audit_creation_method            'LanYouShi'
_symmetry_space_group_name_H-M    'P1'
_cell_length_a                    84.9225998
_cell_length_b                    73.5671005
_cell_length_c                    73.5671005
_cell_angle_alpha                 70.5409012
_cell_angle_beta                  54.7476997
_cell_angle_gamma                 54.7476997
loop_
_atom_site_label
_atom_site_type_symbol
_atom_site_fract_x
_atom_site_fract_y
_atom_site_fract_z
_atom_site_U_iso_or_equiv
_atom_site_adp_type
_atom_site_occupancy
        C1          C  0.4999730  0.4999928  0.4999961    0.00000       Uiso       1.00
        C2          C  0.3238016  0.6357467  0.5712958    0.00000       Uiso       1.00
        C3          C  0.3317637  0.6126732  0.5758977    0.00000       Uiso       1.00
        C4          C  0.3163260  0.6050746  0.5907769    0.00000       Uiso       1.00
        C5          C  0.2932012  0.6203858  0.6011652    0.00000       Uiso       1.00
        C6          C  0.2852393  0.6435016  0.5967641    0.00000       Uiso       1.00
        C7          C  0.3006715  0.6510949  0.5817633    0.00000       Uiso       1.00
        H1          H  0.3353135  0.6420231  0.5596070    0.00000       Uiso       1.00
        H2          H  0.3221893  0.5872794  0.5943404    0.00000       Uiso       1.00
        C8          C  0.5922809  0.5758942  0.3873158    0.00000       Uiso       1.00
        C9          C  0.6048448  0.5712923  0.3642421    0.00000       Uiso       1.00
       C10          C  0.5928392  0.5907735  0.3949143    0.00000       Uiso       1.00
       C11          C  0.6055757  0.6011617  0.3796031    0.00000       Uiso       1.00
       C12          C  0.6179388  0.5967606  0.3564873    0.00000       Uiso       1.00
       C13          C  0.6175073  0.5817598  0.3488940    0.00000       Uiso       1.00
        H3          H  0.6050217  0.5596035  0.3579658    0.00000       Uiso       1.00
        H4          H  0.5834125  0.5943369  0.4127095    0.00000       Uiso       1.00
       C14          C  0.5203457  0.3873123  0.4240945    0.00000       Uiso       1.00
       C15          C  0.5308554  0.3642387  0.4286964    0.00000       Uiso       1.00
       C16          C  0.5121887  0.3949108  0.4092152    0.00000       Uiso       1.00
       C17          C  0.5147635  0.3795996  0.3988270    0.00000       Uiso       1.00
       C18          C  0.5255162  0.3564839  0.4032281    0.00000       Uiso       1.00
       C19          C  0.5335411  0.3488906  0.4182289    0.00000       Uiso       1.00
        H5          H  0.5369548  0.3579624  0.4403852    0.00000       Uiso       1.00
        H6          H  0.5038202  0.4127061  0.4056518    0.00000       Uiso       1.00
       C20          C  0.5555020  0.4240912  0.6126764    0.00000       Uiso       1.00
       C21          C  0.5403904  0.4286931  0.6357500    0.00000       Uiso       1.00
       C22          C  0.5785382  0.4092120  0.6050779    0.00000       Uiso       1.00
       C23          C  0.5863517  0.3988237  0.6203891    0.00000       Uiso       1.00
       C24          C  0.5711979  0.4032249  0.6435049    0.00000       Uiso       1.00
       C25          C  0.5481723  0.4182256  0.6510982    0.00000       Uiso       1.00
        H7          H  0.5226022  0.4403819  0.6420264    0.00000       Uiso       1.00
        H8          H  0.5904701  0.4056485  0.5872827    0.00000       Uiso       1.00
        N1          N  0.6057616  0.6169703  0.3882298    0.00000       Uiso       1.00
        H9          H  0.6155504  0.6229746  0.3753434    0.00000       Uiso       1.00
       H10          H  0.6117474  0.6087977  0.3988274    0.00000       Uiso       1.00
        N2          N  0.5059508  0.3882264  0.3830185    0.00000       Uiso       1.00
       H11          H  0.5090485  0.3753400  0.3770141    0.00000       Uiso       1.00
       H12          H  0.5135376  0.3963036  0.3702854    0.00000       Uiso       1.00
        N3          N  0.2927306  0.6755723  0.5765910    0.00000       Uiso       1.00
       H13          H  0.2759278  0.6843053  0.5852981    0.00000       Uiso       1.00
       H14          H  0.2980299  0.6780749  0.5601364    0.00000       Uiso       1.00
        N4          N  0.5316358  0.4233980  0.6755757    0.00000       Uiso       1.00
       H15          H  0.5397057  0.4146909  0.6843085    0.00000       Uiso       1.00
       H16          H  0.5202958  0.4191225  0.6806992    0.00000       Uiso       1.00
        N5          N  0.6109729  0.3830152  0.6117624    0.00000       Uiso       1.00
       H17          H  0.6138796  0.3770109  0.6246487    0.00000       Uiso       1.00
       H18          H  0.6193836  0.3911878  0.6011648    0.00000       Uiso       1.00
        N6          N  0.5449051  0.3244131  0.4234012    0.00000       Uiso       1.00
       H19          H  0.5455423  0.3156802  0.4146941    0.00000       Uiso       1.00
       H20          H  0.5362524  0.3219105  0.4398558    0.00000       Uiso       1.00
        N7          N  0.6306207  0.5765874  0.3244165    0.00000       Uiso       1.00
       H21          H  0.6387164  0.5852945  0.3156837    0.00000       Uiso       1.00
       H22          H  0.6201288  0.5808629  0.3192929    0.00000       Uiso       1.00
        N8          N  0.2772067  0.6117591  0.6169738    0.00000       Uiso       1.00
       H23          H  0.2614138  0.6246455  0.6229781    0.00000       Uiso       1.00
       H24          H  0.2801376  0.6036819  0.6297068    0.00000       Uiso       1.00
       C26          C  0.3939022  0.5836924  0.5325915    0.00000       Uiso       1.00
       C27          C  0.4028611  0.5645530  0.5440226    0.00000       Uiso       1.00
       C28          C  0.3881734  0.5615509  0.5660846    0.00000       Uiso       1.00
       C29          C  0.3653267  0.5771713  0.5764164    0.00000       Uiso       1.00
       C30          C  0.3563098  0.5962235  0.5649081    0.00000       Uiso       1.00
       C31          C  0.3709919  0.5992272  0.5428014    0.00000       Uiso       1.00
       C32          C  0.5530584  0.5440193  0.4354357    0.00000       Uiso       1.00
       C33          C  0.5734486  0.5325881  0.4162965    0.00000       Uiso       1.00
       C34          C  0.5456841  0.5660812  0.4384378    0.00000       Uiso       1.00
       C35          C  0.5581989  0.5764130  0.4228174    0.00000       Uiso       1.00
       C36          C  0.5787242  0.5649047  0.4037653    0.00000       Uiso       1.00
       C37          C  0.5861490  0.5427979  0.4007617    0.00000       Uiso       1.00
       C38          C  0.5114482  0.4354323  0.4559695    0.00000       Uiso       1.00
       C39          C  0.5101975  0.4162929  0.4674007    0.00000       Uiso       1.00
       C40          C  0.5158203  0.4384345  0.4339076    0.00000       Uiso       1.00
       C41          C  0.5189258  0.4228141  0.4235758    0.00000       Uiso       1.00
       C42          C  0.5174528  0.4037619  0.4350840    0.00000       Uiso       1.00
       C43          C  0.5130318  0.4007582  0.4571908    0.00000       Uiso       1.00
       C44          C  0.5325246  0.4559663  0.5645564    0.00000       Uiso       1.00
       C45          C  0.5223441  0.4673973  0.5836959    0.00000       Uiso       1.00
       C46          C  0.5502147  0.4339044  0.5615541    0.00000       Uiso       1.00
       C47          C  0.5574409  0.4235726  0.5771745    0.00000       Uiso       1.00
       C48          C  0.5474054  0.4350808  0.5962269    0.00000       Uiso       1.00
       C49          C  0.5297195  0.4571874  0.5992307    0.00000       Uiso       1.00
        N9          N  0.5620242  0.4210109  0.5411026    0.00000       Uiso       1.00
       H25          H  0.5741741  0.4055964  0.5416755    0.00000       Uiso       1.00
       H26          H  0.5687777  0.4289926  0.5273553    0.00000       Uiso       1.00
       N10          N  0.5760809  0.3996621  0.5732960    0.00000       Uiso       1.00
       H27          H  0.5794429  0.3945292  0.5858173    0.00000       Uiso       1.00
       H28          H  0.5898166  0.3984634  0.5586976    0.00000       Uiso       1.00
       N11          N  0.5185193  0.4705289  0.6191117    0.00000       Uiso       1.00
       H29          H  0.5255554  0.4610486  0.6287108    0.00000       Uiso       1.00
       H30          H  0.5021501  0.4753963  0.6280636    0.00000       Uiso       1.00
       N12          N  0.5029263  0.4909011  0.5879781    0.00000       Uiso       1.00
       H31          H  0.4977035  0.4965266  0.6023199    0.00000       Uiso       1.00
       H32          H  0.4903621  0.4910919  0.5891935    0.00000       Uiso       1.00
       N13          N  0.5818170  0.5090842  0.4120143    0.00000       Uiso       1.00
       H33          H  0.5965617  0.5034586  0.3976727    0.00000       Uiso       1.00
       H34          H  0.5706591  0.5088931  0.4107989    0.00000       Uiso       1.00
       N14          N  0.6081714  0.5294564  0.3808808    0.00000       Uiso       1.00
       H35          H  0.6153263  0.5389367  0.3712817    0.00000       Uiso       1.00
       H36          H  0.6056217  0.5245888  0.3719288    0.00000       Uiso       1.00
       N15          N  0.5241485  0.5789748  0.4588891    0.00000       Uiso       1.00
       H37          H  0.5214565  0.5943894  0.4583161    0.00000       Uiso       1.00
       H38          H  0.5251362  0.5709933  0.4726366    0.00000       Uiso       1.00
       N16          N  0.5490499  0.6003236  0.4266958    0.00000       Uiso       1.00
       H39          H  0.5598004  0.6054565  0.4141745    0.00000       Uiso       1.00
       H40          H  0.5469883  0.6015224  0.4412943    0.00000       Uiso       1.00
       N17          N  0.3968153  0.5410995  0.5789780    0.00000       Uiso       1.00
       H41          H  0.3840926  0.5416725  0.5943926    0.00000       Uiso       1.00
       H42          H  0.4083425  0.5405945  0.5801466    0.00000       Uiso       1.00
       N18          N  0.4090376  0.5879745  0.5090877    0.00000       Uiso       1.00
       H43          H  0.4248815  0.5754128  0.5041221    0.00000       Uiso       1.00
       H44          H  0.4080680  0.6024660  0.5085710    0.00000       Uiso       1.00
       N19          N  0.3623110  0.6191081  0.5294599    0.00000       Uiso       1.00
       H45          H  0.3456757  0.6287073  0.5389403    0.00000       Uiso       1.00
       H46          H  0.3657468  0.6138405  0.5159101    0.00000       Uiso       1.00
       N20          N  0.3505652  0.5732929  0.6003269    0.00000       Uiso       1.00
       H47          H  0.3346819  0.5858142  0.6054599    0.00000       Uiso       1.00
       H48          H  0.3557356  0.5727580  0.6099803    0.00000       Uiso       1.00
       N21          N  0.5061112  0.4120108  0.4909045    0.00000       Uiso       1.00
       H49          H  0.5057083  0.3976691  0.4965300    0.00000       Uiso       1.00
       H50          H  0.4914084  0.4247243  0.5008002    0.00000       Uiso       1.00
       N22          N  0.5169043  0.4588858  0.4210141    0.00000       Uiso       1.00
       H51          H  0.5201692  0.4583129  0.4055995    0.00000       Uiso       1.00
       H52          H  0.5290949  0.4593908  0.4198456    0.00000       Uiso       1.00
       N23          N  0.5241964  0.4266925  0.3996652    0.00000       Uiso       1.00
       H53          H  0.5259672  0.4141712  0.3945324    0.00000       Uiso       1.00
       H54          H  0.5384852  0.4272274  0.3900119    0.00000       Uiso       1.00
       N24          N  0.5108904  0.3808773  0.4705322    0.00000       Uiso       1.00
       H55          H  0.5133346  0.3712782  0.4610519    0.00000       Uiso       1.00
       H56          H  0.4955086  0.3861449  0.4840820    0.00000       Uiso       1.00
       C50          C  0.4629577  0.5278829  0.5000351    0.00000       Uiso       1.00
       C51          C  0.4743442  0.5167981  0.5121935    0.00000       Uiso       1.00
       C52          C  0.4612472  0.5209326  0.5353789    0.00000       Uiso       1.00
       C53          C  0.4383799  0.5364251  0.5454901    0.00000       Uiso       1.00
       C54          C  0.4273870  0.5479090  0.5330843    0.00000       Uiso       1.00
       C55          C  0.4400173  0.5431796  0.5102087    0.00000       Uiso       1.00
       H57          H  0.4321287  0.5510769  0.5001454    0.00000       Uiso       1.00
       H58          H  0.4293519  0.5395458  0.5631266    0.00000       Uiso       1.00
       C56          C  0.5134045  0.5121902  0.4831906    0.00000       Uiso       1.00
       C57          C  0.5369493  0.5000318  0.4721060    0.00000       Uiso       1.00
       C58          C  0.5033160  0.5353755  0.4790559    0.00000       Uiso       1.00
       C59          C  0.5160721  0.5454867  0.4635635    0.00000       Uiso       1.00
       C60          C  0.5394708  0.5330810  0.4520797    0.00000       Uiso       1.00
       C61          C  0.5497161  0.5102054  0.4568092    0.00000       Uiso       1.00
       H59          H  0.5676680  0.5001422  0.4489121    0.00000       Uiso       1.00
       H60          H  0.5074636  0.5631232  0.4604426    0.00000       Uiso       1.00
       C62          C  0.5033472  0.4831872  0.4877987    0.00000       Uiso       1.00
       C63          C  0.4908872  0.4721023  0.4999571    0.00000       Uiso       1.00
       C64          C  0.5175702  0.4790527  0.4646133    0.00000       Uiso       1.00
       C65          C  0.5203065  0.4635603  0.4545020    0.00000       Uiso       1.00
       C66          C  0.5083918  0.4520763  0.4669078    0.00000       Uiso       1.00
       C67          C  0.4934171  0.4568056  0.4897834    0.00000       Uiso       1.00
       H61          H  0.4833627  0.4489083  0.4998467    0.00000       Uiso       1.00
       H62          H  0.5320358  0.4604395  0.4368656    0.00000       Uiso       1.00
       C68          C  0.5087964  0.4877954  0.5168015    0.00000       Uiso       1.00
       C69          C  0.5090976  0.4999538  0.5278867    0.00000       Uiso       1.00
       C70          C  0.5177595  0.4646098  0.5209355    0.00000       Uiso       1.00
       C71          C  0.5251344  0.4544986  0.5364280    0.00000       Uiso       1.00
       C72          C  0.5246428  0.4669046  0.5479124    0.00000       Uiso       1.00
       C73          C  0.5167413  0.4897802  0.5431834    0.00000       Uiso       1.00
       H63          H  0.5167322  0.4998437  0.5510811    0.00000       Uiso       1.00
       H64          H  0.5310421  0.4368621  0.5395483    0.00000       Uiso       1.00
       N25          N  0.4711183  0.5087913  0.5504581    0.00000       Uiso       1.00
       H65          H  0.4590990  0.5140991  0.5662761    0.00000       Uiso       1.00
       H66          H  0.4832020  0.5118803  0.5455098    0.00000       Uiso       1.00
       N26          N  0.5200301  0.4495307  0.5087938    0.00000       Uiso       1.00
       H67          H  0.5267419  0.4337125  0.5141013    0.00000       Uiso       1.00
       H68          H  0.5300000  0.4503381  0.4922688    0.00000       Uiso       1.00
       N27          N  0.4746216  0.4764623  0.5245836    0.00000       Uiso       1.00
       H69          H  0.4671878  0.4672823  0.5306442    0.00000       Uiso       1.00
       H70          H  0.4629680  0.4927818  0.5270821    0.00000       Uiso       1.00
       N28          N  0.5488550  0.4754053  0.4764662    0.00000       Uiso       1.00
       H71          H  0.5654688  0.4693448  0.4672863    0.00000       Uiso       1.00
       H72          H  0.5448467  0.4675017  0.4722560    0.00000       Uiso       1.00
       N29          N  0.5007364  0.5245805  0.5235270    0.00000       Uiso       1.00
       H73          H  0.5021093  0.5306411  0.5327071    0.00000       Uiso       1.00
       H74          H  0.4846141  0.5324837  0.5277372    0.00000       Uiso       1.00
       N30          N  0.5303792  0.4911940  0.4495342    0.00000       Uiso       1.00
       H75          H  0.5394859  0.4858861  0.4337161    0.00000       Uiso       1.00
       H76          H  0.5406037  0.4881049  0.4544826    0.00000       Uiso       1.00
       N31          N  0.4783657  0.5504546  0.4911969    0.00000       Uiso       1.00
       H77          H  0.4745668  0.5662726  0.4858890    0.00000       Uiso       1.00
       H78          H  0.4726175  0.5496477  0.5077220    0.00000       Uiso       1.00
       N32          N  0.4756786  0.5235228  0.4754086    0.00000       Uiso       1.00
       H79          H  0.4918729  0.5122277  0.4705147    0.00000       Uiso       1.00
       H80          H  0.4743629  0.5378589  0.4669280    0.00000       Uiso       1.00
       C74          C  0.8748050  0.6251048  0.8749961    0.00000       Uiso       1.00
       C75          C  0.7389404  0.7300083  0.8347043    0.00000       Uiso       1.00
       C76          C  0.7620154  0.7174464  0.8195836    0.00000       Uiso       1.00
       C77          C  0.7696005  0.7180115  0.7965546    0.00000       Uiso       1.00
       C78          C  0.7542742  0.7307526  0.7887570    0.00000       Uiso       1.00
       C79          C  0.7311568  0.7431137  0.8039200    0.00000       Uiso       1.00
       C80          C  0.7235771  0.7426755  0.8269385    0.00000       Uiso       1.00
       H81          H  0.7326744  0.7301800  0.8524875    0.00000       Uiso       1.00
       H82          H  0.7873966  0.7085864  0.7846158    0.00000       Uiso       1.00
       C81          C  0.7989954  0.6454264  0.0431735    0.00000       Uiso       1.00
       C82          C  0.8036133  0.6559257  0.0511346    0.00000       Uiso       1.00
       C83          C  0.7841131  0.6372728  0.0586072    0.00000       Uiso       1.00
       C84          C  0.7737374  0.6398407  0.0817274    0.00000       Uiso       1.00
       C85          C  0.7781544  0.6505831  0.0896887    0.00000       Uiso       1.00
       C86          C  0.7931584  0.6586045  0.0742602    0.00000       Uiso       1.00
       H83          H  0.8153050  0.6620224  0.0396254    0.00000       Uiso       1.00
       H84          H  0.7805375  0.6289123  0.0527445    0.00000       Uiso       1.00
       C87          C  0.9875285  0.6805997  0.7827040    0.00000       Uiso       1.00
       C88          C  0.0106048  0.6654903  0.7701286    0.00000       Uiso       1.00
       C89          C  0.9799329  0.7036293  0.7821596    0.00000       Uiso       1.00
       C90          C  0.9952499  0.7114382  0.7694254    0.00000       Uiso       1.00
       C91          C  0.0183687  0.6962863  0.7570508    0.00000       Uiso       1.00
       C92          C  0.0259589  0.6732675  0.7574684    0.00000       Uiso       1.00
       H85          H  0.0168787  0.6477073  0.7699410    0.00000       Uiso       1.00
       H86          H  0.9621356  0.7155597  0.7915953    0.00000       Uiso       1.00
       C93          C  0.9506810  0.4569460  0.8545233    0.00000       Uiso       1.00
       C94          C  0.9460621  0.4489942  0.8440168    0.00000       Uiso       1.00
       C95          C  0.9655740  0.4415050  0.8626630    0.00000       Uiso       1.00
       C96          C  0.9759588  0.4183871  0.8600745    0.00000       Uiso       1.00
       C97          C  0.9715406  0.4104354  0.8493250    0.00000       Uiso       1.00
       C98          C  0.9565262  0.4258711  0.8413174    0.00000       Uiso       1.00
       H87          H  0.9343625  0.4605089  0.8379306    0.00000       Uiso       1.00
       H88          H  0.9691507  0.4473602  0.8710288    0.00000       Uiso       1.00
       N33          N  0.7579250  0.6310319  0.0977179    0.00000       Uiso       1.00
       H89          H  0.7519309  0.6341239  0.1135079    0.00000       Uiso       1.00
       H90          H  0.7660955  0.6144534  0.0955209    0.00000       Uiso       1.00
       N34          N  0.9866264  0.7360523  0.7692544    0.00000       Uiso       1.00
       H91          H  0.9995169  0.7389563  0.7594657    0.00000       Uiso       1.00
       H92          H  0.9785584  0.7411930  0.7849173    0.00000       Uiso       1.00
       N35          N  0.6990984  0.7557865  0.8434843    0.00000       Uiso       1.00
       H93          H  0.6903542  0.7638861  0.8354256    0.00000       Uiso       1.00
       H94          H  0.6966056  0.7669346  0.8512888    0.00000       Uiso       1.00
       N36          N  0.9513354  0.4179410  0.8299571    0.00000       Uiso       1.00
       H95          H  0.9600423  0.4011421  0.8293088    0.00000       Uiso       1.00
       H96          H  0.9556035  0.4241597  0.8143494    0.00000       Uiso       1.00
       N37          N  0.9917822  0.4023887  0.8688691    0.00000       Uiso       1.00
       H97          H  0.9977821  0.3866014  0.8657629    0.00000       Uiso       1.00
       H98          H  0.9836183  0.4045709  0.8854495    0.00000       Uiso       1.00
       N38          N  0.0504392  0.6567333  0.7443425    0.00000       Uiso       1.00
       H99          H  0.0591762  0.6647993  0.7362501    0.00000       Uiso       1.00
      H100          H  0.0529305  0.6489388  0.7331876    0.00000       Uiso       1.00
       N39          N  0.7983475  0.6699577  0.0822004    0.00000       Uiso       1.00
      H101          H  0.7896479  0.6705909  0.0989998    0.00000       Uiso       1.00
      H102          H  0.7940696  0.6855709  0.0759956    0.00000       Uiso       1.00
       N40          N  0.7628867  0.7309456  0.7641431    0.00000       Uiso       1.00
      H103          H  0.7499906  0.7407369  0.7612479    0.00000       Uiso       1.00
      H104          H  0.7709595  0.7152873  0.7589884    0.00000       Uiso       1.00
       C99          C  0.7910433  0.6985948  0.8527052    0.00000       Uiso       1.00
      C100          C  0.8101816  0.6782099  0.8425116    0.00000       Uiso       1.00
      C101          C  0.8131673  0.6708455  0.8248249    0.00000       Uiso       1.00
      C102          C  0.7975320  0.6833649  0.8176146    0.00000       Uiso       1.00
      C103          C  0.7784809  0.7038850  0.8276632    0.00000       Uiso       1.00
      C104          C  0.7754937  0.7112998  0.8453456    0.00000       Uiso       1.00
      C105          C  0.8308311  0.6365511  0.9720893    0.00000       Uiso       1.00
      C106          C  0.8422799  0.6352916  0.9810385    0.00000       Uiso       1.00
      C107          C  0.8087643  0.6409247  0.9867823    0.00000       Uiso       1.00
      C108          C  0.7984456  0.6440224  0.0096250    0.00000       Uiso       1.00
      C109          C  0.8099716  0.6425408  0.0186321    0.00000       Uiso       1.00
      C110          C  0.8320830  0.6381183  0.0039448    0.00000       Uiso       1.00
      C111          C  0.9393903  0.6576365  0.8219201    0.00000       Uiso       1.00
      C112          C  0.9585240  0.6474613  0.8015261    0.00000       Uiso       1.00
      C113          C  0.9363998  0.6753166  0.8293004    0.00000       Uiso       1.00
      C114          C  0.9520262  0.6825382  0.8167874    0.00000       Uiso       1.00
      C115          C  0.9710728  0.6725081  0.7962583    0.00000       Uiso       1.00
      C116          C  0.9740646  0.6548322  0.7888277    0.00000       Uiso       1.00
      C117          C  0.9188173  0.5280219  0.8634630    0.00000       Uiso       1.00
      C118          C  0.9073730  0.5190715  0.8647141    0.00000       Uiso       1.00
      C119          C  0.9408883  0.5133328  0.8590767    0.00000       Uiso       1.00
      C120          C  0.9512163  0.4904932  0.8559576    0.00000       Uiso       1.00
      C121          C  0.9396952  0.4814848  0.8574308    0.00000       Uiso       1.00
      C122          C  0.9175792  0.4961682  0.8618662    0.00000       Uiso       1.00
       N41          N  0.9537961  0.5219655  0.8579915    0.00000       Uiso       1.00
      H105          H  0.9692160  0.5092430  0.8547156    0.00000       Uiso       1.00
      H106          H  0.9458237  0.5289533  0.8727267    0.00000       Uiso       1.00
       N42          N  0.9751370  0.4757299  0.8506723    0.00000       Uiso       1.00
      H107          H  0.9802659  0.4598521  0.8488927    0.00000       Uiso       1.00
      H108          H  0.9763482  0.4765861  0.8632036    0.00000       Uiso       1.00
       N43          N  0.9042239  0.4874963  0.8640085    0.00000       Uiso       1.00
      H109          H  0.9137031  0.4708653  0.8615537    0.00000       Uiso       1.00
      H110          H  0.8993451  0.4949176  0.8525173    0.00000       Uiso       1.00
       N44          N  0.8838587  0.5342089  0.8688155    0.00000       Uiso       1.00
      H111          H  0.8782244  0.5250963  0.8692165    0.00000       Uiso       1.00
      H112          H  0.8836617  0.5455583  0.8564528    0.00000       Uiso       1.00
       N45          N  0.8657894  0.6312034  0.9658976    0.00000       Uiso       1.00
      H113          H  0.8714280  0.6307940  0.9750098    0.00000       Uiso       1.00
      H114          H  0.8659760  0.6435761  0.9545591    0.00000       Uiso       1.00
       N46          N  0.8454433  0.6359679  0.0126148    0.00000       Uiso       1.00
      H115          H  0.8359704  0.6384078  0.0292480    0.00000       Uiso       1.00
      H116          H  0.8503138  0.6474655  0.0052038    0.00000       Uiso       1.00
       N47          N  0.7958520  0.6420181  0.9781504    0.00000       Uiso       1.00
      H117          H  0.7804365  0.6452827  0.9908757    0.00000       Uiso       1.00
      H118          H  0.8038279  0.6272891  0.9711494    0.00000       Uiso       1.00
       N48          N  0.7745292  0.6492949  0.0243929    0.00000       Uiso       1.00
      H119          H  0.7694067  0.6510600  0.0402723    0.00000       Uiso       1.00
      H120          H  0.7733229  0.6367645  0.0235255    0.00000       Uiso       1.00
       N49          N  0.8336168  0.6493159  0.8130020    0.00000       Uiso       1.00
      H121          H  0.8330312  0.6466308  0.8008568    0.00000       Uiso       1.00
      H122          H  0.8341266  0.6366207  0.8240132    0.00000       Uiso       1.00
       N50          N  0.7867785  0.7069527  0.8721197    0.00000       Uiso       1.00
      H123          H  0.7993495  0.6960722  0.8753899    0.00000       Uiso       1.00
      H124          H  0.7722866  0.7084388  0.8856428    0.00000       Uiso       1.00
       N51          N  0.7556148  0.7333161  0.8565595    0.00000       Uiso       1.00
      H125          H  0.7460040  0.7404752  0.8495340    0.00000       Uiso       1.00
      H126          H  0.7608901  0.7434241  0.8547305    0.00000       Uiso       1.00
       N52          N  0.8013932  0.6742265  0.7989773    0.00000       Uiso       1.00
      H127          H  0.7888624  0.6849793  0.7956271    0.00000       Uiso       1.00
      H128          H  0.8019261  0.6594071  0.8036037    0.00000       Uiso       1.00
       N53          N  0.9627938  0.6280542  0.7931508    0.00000       Uiso       1.00
      H129          H  0.9771328  0.6228340  0.7784041    0.00000       Uiso       1.00
      H130          H  0.9500693  0.6328657  0.7911702    0.00000       Uiso       1.00
       N54          N  0.9159548  0.6871202  0.8508406    0.00000       Uiso       1.00
      H131          H  0.9165360  0.6992630  0.8535365    0.00000       Uiso       1.00
      H132          H  0.9154558  0.6760976  0.8635259    0.00000       Uiso       1.00
       N55          N  0.9481609  0.7011675  0.8259424    0.00000       Uiso       1.00
      H133          H  0.9606853  0.7045273  0.8151926    0.00000       Uiso       1.00
      H134          H  0.9476368  0.6965277  0.8407577    0.00000       Uiso       1.00
       N56          N  0.9939386  0.6436381  0.7668013    0.00000       Uiso       1.00
      H135          H  0.0035431  0.6506701  0.7596484    0.00000       Uiso       1.00
      H136          H  0.9886580  0.6454760  0.7566950    0.00000       Uiso       1.00
      C123          C  0.8468983  0.6620811  0.8659040    0.00000       Uiso       1.00
      C124          C  0.8579827  0.6385418  0.8661901    0.00000       Uiso       1.00
      C125          C  0.8538320  0.6284637  0.8572289    0.00000       Uiso       1.00
      C126          C  0.8383247  0.6412243  0.8498699    0.00000       Uiso       1.00
      C127          C  0.8268414  0.6646175  0.8503763    0.00000       Uiso       1.00
      C128          C  0.8315867  0.6748526  0.8582762    0.00000       Uiso       1.00
      H137          H  0.8236905  0.6927999  0.8582965    0.00000       Uiso       1.00
      H138          H  0.8351921  0.6326237  0.8439628    0.00000       Uiso       1.00
      C129          C  0.8626210  0.6284714  0.9006203    0.00000       Uiso       1.00
      C130          C  0.8747948  0.6160063  0.9119908    0.00000       Uiso       1.00
      C131          C  0.8394331  0.6426927  0.9137281    0.00000       Uiso       1.00
      C132          C  0.8293345  0.6454222  0.9365910    0.00000       Uiso       1.00
      C133          C  0.8417559  0.6335021  0.9475682    0.00000       Uiso       1.00
      C134          C  0.8646339  0.6185293  0.9349267    0.00000       Uiso       1.00
      H139          H  0.8747085  0.6084712  0.9428027    0.00000       Uiso       1.00
      H140          H  0.8116956  0.6571501  0.9456280    0.00000       Uiso       1.00
      C135          C  0.8916175  0.6339227  0.8615671    0.00000       Uiso       1.00
      C136          C  0.9026913  0.6342297  0.8380280    0.00000       Uiso       1.00
      C137          C  0.8957688  0.6428748  0.8716531    0.00000       Uiso       1.00
      C138          C  0.9112669  0.6502451  0.8588992    0.00000       Uiso       1.00
      C139          C  0.9227399  0.6497596  0.8355055    0.00000       Uiso       1.00
      C140          C  0.9179938  0.6418688  0.8252634    0.00000       Uiso       1.00
      H141          H  0.9258822  0.6418645  0.8073161    0.00000       Uiso       1.00
      H142          H  0.9144008  0.6561444  0.8675051    0.00000       Uiso       1.00
      C141          C  0.8869989  0.5994835  0.8716065    0.00000       Uiso       1.00
      C142          C  0.8748355  0.5881022  0.8840611    0.00000       Uiso       1.00
      C143          C  0.9101865  0.5863883  0.8573743    0.00000       Uiso       1.00
      C144          C  0.9202941  0.5635280  0.8546245    0.00000       Uiso       1.00
      C145          C  0.9078829  0.5525403  0.8665341    0.00000       Uiso       1.00
      C146          C  0.8850056  0.5651685  0.8815175    0.00000       Uiso       1.00
      H143          H  0.8749387  0.5572836  0.8915682    0.00000       Uiso       1.00
      H144          H  0.9379319  0.5545014  0.8428889    0.00000       Uiso       1.00
       N57          N  0.8659709  0.6035202  0.8549432    0.00000       Uiso       1.00
      H145          H  0.8606507  0.5997285  0.8482353    0.00000       Uiso       1.00
      H146          H  0.8628895  0.5963824  0.8701072    0.00000       Uiso       1.00
       N58          N  0.9252721  0.5962540  0.8445691    0.00000       Uiso       1.00
      H147          H  0.9410909  0.5842370  0.8354544    0.00000       Uiso       1.00
      H148          H  0.9244765  0.6028017  0.8553450    0.00000       Uiso       1.00
       N59          N  0.8983132  0.6258797  0.8261257    0.00000       Uiso       1.00
      H149          H  0.9074871  0.6272556  0.8095160    0.00000       Uiso       1.00
      H150          H  0.8819873  0.6350358  0.8308011    0.00000       Uiso       1.00
       N60          N  0.8994247  0.5997424  0.8992574    0.00000       Uiso       1.00
      H151          H  0.9054968  0.5923043  0.9097998    0.00000       Uiso       1.00
      H152          H  0.9073286  0.6079590  0.8873508    0.00000       Uiso       1.00
       N61          N  0.8502070  0.6008211  0.9003358    0.00000       Uiso       1.00
      H153          H  0.8441429  0.5902722  0.9077642    0.00000       Uiso       1.00
      H154          H  0.8422947  0.6127351  0.8921294    0.00000       Uiso       1.00
       N62          N  0.8836399  0.6451380  0.8965988    0.00000       Uiso       1.00
      H155          H  0.8889589  0.6518424  0.9003965    0.00000       Uiso       1.00
      H156          H  0.8867313  0.6299675  0.9037228    0.00000       Uiso       1.00
       N63          N  0.8243374  0.6555074  0.9038737    0.00000       Uiso       1.00
      H157          H  0.8085200  0.6646119  0.9158987    0.00000       Uiso       1.00
      H158          H  0.8251343  0.6447380  0.8973164    0.00000       Uiso       1.00
       N64          N  0.8512750  0.6739758  0.8742644    0.00000       Uiso       1.00
      H159          H  0.8625795  0.6626732  0.8791512    0.00000       Uiso       1.00
      H160          H  0.8369422  0.6837683  0.8872896    0.00000       Uiso       1.00
      C147          C  0.7501409  0.8749925  0.3748843    0.00000       Uiso       1.00
      C148          C  0.6451947  0.0511311  0.3440627    0.00000       Uiso       1.00
      C149          C  0.6577736  0.0431700  0.3545621    0.00000       Uiso       1.00
      C150          C  0.6572223  0.0586037  0.3627156    0.00000       Uiso       1.00
      C151          C  0.6444778  0.0817240  0.3601478    0.00000       Uiso       1.00
      C152          C  0.6320996  0.0896852  0.3494054    0.00000       Uiso       1.00
      C153          C  0.6325241  0.0742567  0.3413839    0.00000       Uiso       1.00
      H161          H  0.6450121  0.0396219  0.3379661    0.00000       Uiso       1.00
      H162          H  0.6666607  0.0527410  0.3710762    0.00000       Uiso       1.00
      C154          C  0.7297094  0.7827005  0.3193893    0.00000       Uiso       1.00
      C155          C  0.7192087  0.7701251  0.3344987    0.00000       Uiso       1.00
      C156          C  0.7378494  0.7821560  0.2963597    0.00000       Uiso       1.00
      C157          C  0.7352667  0.7694218  0.2885509    0.00000       Uiso       1.00
      C158          C  0.7245226  0.7570472  0.3037027    0.00000       Uiso       1.00
      C159          C  0.7165148  0.7574649  0.3267216    0.00000       Uiso       1.00
      H163          H  0.7131224  0.7699375  0.3522818    0.00000       Uiso       1.00
      H164          H  0.7462111  0.7915918  0.2844293    0.00000       Uiso       1.00
      C160          C  0.6947376  0.8545200  0.5430431    0.00000       Uiso       1.00
      C161          C  0.7098629  0.8440135  0.5509949    0.00000       Uiso       1.00
      C162          C  0.6717048  0.8626597  0.5584841    0.00000       Uiso       1.00
      C163          C  0.6639085  0.8600712  0.5816020    0.00000       Uiso       1.00
      C164          C  0.6790761  0.8493217  0.5895537    0.00000       Uiso       1.00
      C165          C  0.7020983  0.8413140  0.5741180    0.00000       Uiso       1.00
      H165          H  0.7276489  0.8379272  0.5394801    0.00000       Uiso       1.00
      H166          H  0.6597622  0.8710256  0.5526289    0.00000       Uiso       1.00
      C166          C  0.9183429  0.8195800  0.2825426    0.00000       Uiso       1.00
      C167          C  0.9262973  0.8347008  0.2699808    0.00000       Uiso       1.00
      C168          C  0.9337870  0.7965510  0.2819776    0.00000       Uiso       1.00
      C169          C  0.9569107  0.7887535  0.2692364    0.00000       Uiso       1.00
      C170          C  0.9648651  0.8039164  0.2568754    0.00000       Uiso       1.00
      C171          C  0.9494264  0.8269349  0.2573136    0.00000       Uiso       1.00
      H167          H  0.9147801  0.8524839  0.2698091    0.00000       Uiso       1.00
      H168          H  0.9279295  0.7846122  0.2914027    0.00000       Uiso       1.00
       N65          N  0.7440612  0.7692508  0.2639367    0.00000       Uiso       1.00
      H169          H  0.7409595  0.7594621  0.2610328    0.00000       Uiso       1.00
      H170          H  0.7606443  0.7632763  0.2555224    0.00000       Uiso       1.00
       N66          N  0.6392905  0.8688657  0.5976005    0.00000       Uiso       1.00
      H171          H  0.6363968  0.8657596  0.6133876    0.00000       Uiso       1.00
      H172          H  0.6341393  0.8612779  0.5946732    0.00000       Uiso       1.00
       N67          N  0.6193947  0.0821969  0.3300308    0.00000       Uiso       1.00
      H173          H  0.6112947  0.0989963  0.3293975    0.00000       Uiso       1.00
      H174          H  0.6082421  0.0768888  0.3386847    0.00000       Uiso       1.00
       N68          N  0.9573592  0.8434808  0.2442026    0.00000       Uiso       1.00
      H175          H  0.9741623  0.8354220  0.2361030    0.00000       Uiso       1.00
      H176          H  0.9511493  0.8548133  0.2546926    0.00000       Uiso       1.00
       N69          N  0.9729123  0.7641395  0.2690434    0.00000       Uiso       1.00
      H177          H  0.9887035  0.7612443  0.2592521    0.00000       Uiso       1.00
      H178          H  0.9707189  0.7557306  0.2630614    0.00000       Uiso       1.00
       N70          N  0.7186493  0.8299538  0.5820481    0.00000       Uiso       1.00
      H179          H  0.7105908  0.8293055  0.5988470    0.00000       Uiso       1.00
      H180          H  0.7264498  0.8386124  0.5767477    0.00000       Uiso       1.00
       N71          N  0.7051604  0.7443390  0.3432558    0.00000       Uiso       1.00
      H181          H  0.7045158  0.7362466  0.3351897    0.00000       Uiso       1.00
      H182          H  0.6895480  0.7548189  0.3545977    0.00000       Uiso       1.00
       N72          N  0.6442996  0.0977145  0.3689566    0.00000       Uiso       1.00
      H183          H  0.6345038  0.1135044  0.3658646    0.00000       Uiso       1.00
      H184          H  0.6599638  0.0947940  0.3613662    0.00000       Uiso       1.00
      C172          C  0.6766234  0.9810351  0.3646975    0.00000       Uiso       1.00
      C173          C  0.6970215  0.9720858  0.3634383    0.00000       Uiso       1.00
      C174          C  0.7043951  0.9867788  0.3590649    0.00000       Uiso       1.00
      C175          C  0.6918719  0.0096215  0.3559662    0.00000       Uiso       1.00
      C176          C  0.6713389  0.0186286  0.3574477    0.00000       Uiso       1.00
      C177          C  0.6639148  0.0039413  0.3618701    0.00000       Uiso       1.00
      C178          C  0.7386315  0.8219166  0.3423525    0.00000       Uiso       1.00
      C179          C  0.7398921  0.8015225  0.3525277    0.00000       Uiso       1.00
      C180          C  0.7342416  0.8292969  0.3246725    0.00000       Uiso       1.00
      C181          C  0.7311282  0.8167839  0.3174509    0.00000       Uiso       1.00
      C182          C  0.7326109  0.7962548  0.3274810    0.00000       Uiso       1.00
      C183          C  0.7370498  0.7888241  0.3451567    0.00000       Uiso       1.00
      C184          C  0.7176618  0.8634595  0.4719672    0.00000       Uiso       1.00
      C185          C  0.7278547  0.8647108  0.4809176    0.00000       Uiso       1.00
      C186          C  0.6999770  0.8590730  0.4866562    0.00000       Uiso       1.00
      C187          C  0.6927680  0.8559540  0.5094959    0.00000       Uiso       1.00
      C188          C  0.7028158  0.8574275  0.5185044    0.00000       Uiso       1.00
      C189          C  0.7204963  0.8618630  0.5038210    0.00000       Uiso       1.00
      C190          C  0.8472487  0.8425081  0.3217793    0.00000       Uiso       1.00
      C191          C  0.8561934  0.8527018  0.3013945    0.00000       Uiso       1.00
      C192          C  0.8619497  0.8248214  0.3291435    0.00000       Uiso       1.00
      C193          C  0.8847952  0.8176110  0.3166241    0.00000       Uiso       1.00
      C194          C  0.8937979  0.8276596  0.2961042    0.00000       Uiso       1.00
      C195          C  0.8791026  0.8453422  0.2886895    0.00000       Uiso       1.00
       N73          N  0.8533232  0.8129983  0.3506730    0.00000       Uiso       1.00
      H185          H  0.8660541  0.8008530  0.3533580    0.00000       Uiso       1.00
      H186          H  0.8463252  0.8062422  0.3496889    0.00000       Uiso       1.00
       N74          N  0.8995716  0.7989734  0.3257624    0.00000       Uiso       1.00
      H187          H  0.9154525  0.7956233  0.3150097    0.00000       Uiso       1.00
      H188          H  0.8987104  0.7852364  0.3278232    0.00000       Uiso       1.00
       N75          N  0.8877676  0.8565561  0.2666732    0.00000       Uiso       1.00
      H189          H  0.9044039  0.8495307  0.2595140    0.00000       Uiso       1.00
      H190          H  0.8803492  0.8729209  0.2692253    0.00000       Uiso       1.00
       N76          N  0.8410437  0.8721166  0.2930367    0.00000       Uiso       1.00
      H191          H  0.8501536  0.8773500  0.2782947    0.00000       Uiso       1.00
      H192          H  0.8296997  0.8846707  0.3041948    0.00000       Uiso       1.00
       N77          N  0.7439976  0.7931472  0.3719347    0.00000       Uiso       1.00
      H193          H  0.7444055  0.7784005  0.3771548    0.00000       Uiso       1.00
      H194          H  0.7316300  0.8042939  0.3844989    0.00000       Uiso       1.00
       N78          N  0.7392024  0.7667977  0.3563508    0.00000       Uiso       1.00
      H195          H  0.7367507  0.7596448  0.3493189    0.00000       Uiso       1.00
      H196          H  0.7277102  0.7693349  0.3727178    0.00000       Uiso       1.00
       N79          N  0.7331463  0.8508372  0.3128690    0.00000       Uiso       1.00
      H197          H  0.7298690  0.8535331  0.3007263    0.00000       Uiso       1.00
      H198          H  0.7478819  0.8498592  0.3061119    0.00000       Uiso       1.00
       N80          N  0.7258384  0.8259389  0.2988217    0.00000       Uiso       1.00
      H199          H  0.7240639  0.8151891  0.2954620    0.00000       Uiso       1.00
      H200          H  0.7383687  0.8280121  0.2850866    0.00000       Uiso       1.00
       N81          N  0.7259391  0.9781470  0.3579718    0.00000       Uiso       1.00
      H201          H  0.7286293  0.9908723  0.3547071    0.00000       Uiso       1.00
      H202          H  0.7386296  0.9666310  0.3457809    0.00000       Uiso       1.00
       N82          N  0.6682550  0.9658940  0.3687856    0.00000       Uiso       1.00
      H203          H  0.6791396  0.9500543  0.3704635    0.00000       Uiso       1.00
      H204          H  0.6667564  0.9668688  0.3557869    0.00000       Uiso       1.00
       N83          N  0.6418846  0.0126113  0.3640203    0.00000       Uiso       1.00
      H205          H  0.6347243  0.0292445  0.3615803    0.00000       Uiso       1.00
      H206          H  0.6317797  0.0091642  0.3793996    0.00000       Uiso       1.00
       N84          N  0.7010204  0.0243895  0.3506939    0.00000       Uiso       1.00
      H207          H  0.6902635  0.0402688  0.3489286    0.00000       Uiso       1.00
      H208          H  0.7158379  0.0192320  0.3364048    0.00000       Uiso       1.00
       N85          N  0.7472675  0.8688124  0.4657803    0.00000       Uiso       1.00
      H209          H  0.7525005  0.8692136  0.4748929    0.00000       Uiso       1.00
      H210          H  0.7424511  0.8835167  0.4578796    0.00000       Uiso       1.00
       N86          N  0.6881546  0.8579875  0.4780234    0.00000       Uiso       1.00
      H211          H  0.6760108  0.8547115  0.4907458    0.00000       Uiso       1.00
      H212          H  0.6991713  0.8458069  0.4664966    0.00000       Uiso       1.00
       N87          N  0.6741329  0.8506685  0.5242592    0.00000       Uiso       1.00
      H213          H  0.6707835  0.8488891  0.5401369    0.00000       Uiso       1.00
      H214          H  0.6787659  0.8363841  0.5190890    0.00000       Uiso       1.00
       N88          N  0.7317092  0.8640055  0.5124930    0.00000       Uiso       1.00
      H215          H  0.7246848  0.8615507  0.5291239    0.00000       Uiso       1.00
      H216          H  0.7298734  0.8793879  0.5090595    0.00000       Uiso       1.00
      C196          C  0.7131562  0.9119873  0.3839829    0.00000       Uiso       1.00
      C197          C  0.7367004  0.9006169  0.3715178    0.00000       Uiso       1.00
      C198          C  0.7467806  0.9137247  0.3572968    0.00000       Uiso       1.00
      C199          C  0.7340163  0.9365876  0.3545674    0.00000       Uiso       1.00
      C200          C  0.7106178  0.9475647  0.3664873    0.00000       Uiso       1.00
      C201          C  0.7003813  0.9349231  0.3814599    0.00000       Uiso       1.00
      H217          H  0.6824304  0.9427992  0.3915180    0.00000       Uiso       1.00
      H218          H  0.7426182  0.9456246  0.3428396    0.00000       Uiso       1.00
      C202          C  0.7467574  0.8615636  0.3660664    0.00000       Uiso       1.00
      C203          C  0.7592229  0.8380244  0.3657590    0.00000       Uiso       1.00
      C204          C  0.7325198  0.8716496  0.3571146    0.00000       Uiso       1.00
      C205          C  0.7297757  0.8588957  0.3497442    0.00000       Uiso       1.00
      C206          C  0.7416964  0.8355020  0.3502294    0.00000       Uiso       1.00
      C207          C  0.7566850  0.8252599  0.3581198    0.00000       Uiso       1.00
      H219          H  0.7667443  0.8073125  0.3581239    0.00000       Uiso       1.00
      H220          H  0.7180358  0.8675015  0.3438450    0.00000       Uiso       1.00
      C208          C  0.7413366  0.8716030  0.4005056    0.00000       Uiso       1.00
      C209          C  0.7410450  0.8840578  0.4118870    0.00000       Uiso       1.00
      C210          C  0.7323818  0.8573702  0.4136007    0.00000       Uiso       1.00
      C211          C  0.7250241  0.8546203  0.4364611    0.00000       Uiso       1.00
      C212          C  0.7255252  0.8665304  0.4474488    0.00000       Uiso       1.00
      C213          C  0.7334184  0.8815142  0.4348207    0.00000       Uiso       1.00
      H221          H  0.7334343  0.8915651  0.4427057    0.00000       Uiso       1.00
      H222          H  0.7191223  0.8428844  0.4454876    0.00000       Uiso       1.00
      C214          C  0.7757692  0.8661866  0.3614474    0.00000       Uiso       1.00
      C215          C  0.7871395  0.8659010  0.3379080    0.00000       Uiso       1.00
      C216          C  0.7888812  0.8572249  0.3715255    0.00000       Uiso       1.00
      C217          C  0.8117473  0.8498659  0.3587649    0.00000       Uiso       1.00
      C218          C  0.8227240  0.8503729  0.3353717    0.00000       Uiso       1.00
      C219          C  0.8100789  0.8582733  0.3251366    0.00000       Uiso       1.00
      H223          H  0.8179548  0.8582940  0.3071893    0.00000       Uiso       1.00
      H224          H  0.8207870  0.8439584  0.3673656    0.00000       Uiso       1.00
       N89          N  0.7717305  0.9038705  0.3444825    0.00000       Uiso       1.00
      H225          H  0.7755229  0.9158956  0.3353782    0.00000       Uiso       1.00
      H226          H  0.7788602  0.8917945  0.3342593    0.00000       Uiso       1.00
       N90          N  0.7790279  0.8549387  0.3964690    0.00000       Uiso       1.00
      H227          H  0.7910560  0.8482306  0.4002607    0.00000       Uiso       1.00
      H228          H  0.7724750  0.8449633  0.4022171    0.00000       Uiso       1.00
       N91          N  0.7493983  0.9003329  0.3991681    0.00000       Uiso       1.00
      H229          H  0.7480339  0.9077613  0.4097172    0.00000       Uiso       1.00
      H230          H  0.7402328  0.9119855  0.3920110    0.00000       Uiso       1.00
       N92          N  0.7755036  0.8261223  0.3741086    0.00000       Uiso       1.00
      H231          H  0.7829396  0.8095125  0.3727325    0.00000       Uiso       1.00
      H232          H  0.7672957  0.8301198  0.3902274    0.00000       Uiso       1.00
       N93          N  0.7744022  0.8742619  0.3260133    0.00000       Uiso       1.00
      H233          H  0.7849452  0.8729011  0.3094023    0.00000       Uiso       1.00
      H234          H  0.7624884  0.8903770  0.3300257    0.00000       Uiso       1.00
       N94          N  0.7301019  0.8445646  0.4037348    0.00000       Uiso       1.00
      H235          H  0.7233982  0.8354495  0.4157517    0.00000       Uiso       1.00
      H236          H  0.7452707  0.8343523  0.3916497    0.00000       Uiso       1.00
       N95          N  0.7197028  0.8965952  0.3548515    0.00000       Uiso       1.00
      H237          H  0.7105860  0.9003929  0.3481474    0.00000       Uiso       1.00
      H238          H  0.7304756  0.9023527  0.3448812    0.00000       Uiso       1.00
       N96          N  0.7012597  0.8992537  0.4002466    0.00000       Uiso       1.00
      H239          H  0.7125651  0.8830646  0.4002363    0.00000       Uiso       1.00
      H240          H  0.6914549  0.9005672  0.3957134    0.00000       Uiso       1.00
      C220          C  0.3749173  0.3748806  0.1249962    0.00000       Uiso       1.00
      C221          C  0.3036644  0.2699771  0.1652879    0.00000       Uiso       1.00
      C222          C  0.2990569  0.2825390  0.1804086    0.00000       Uiso       1.00
      C223          C  0.2841779  0.2819740  0.2034376    0.00000       Uiso       1.00
      C224          C  0.2737953  0.2692328  0.2112351    0.00000       Uiso       1.00
      C225          C  0.2782020  0.2568717  0.1960722    0.00000       Uiso       1.00
      C226          C  0.2932025  0.2573100  0.1730537    0.00000       Uiso       1.00
      H241          H  0.3153533  0.2698054  0.1475047    0.00000       Uiso       1.00
      H242          H  0.2806102  0.2913991  0.2153765    0.00000       Uiso       1.00
      C227          C  0.4876064  0.3545591  0.9568187    0.00000       Uiso       1.00
      C228          C  0.5106848  0.3440597  0.9488575    0.00000       Uiso       1.00
      C229          C  0.4800043  0.3627126  0.9413850    0.00000       Uiso       1.00
      C230          C  0.4953166  0.3601447  0.9182647    0.00000       Uiso       1.00
      C231          C  0.5184373  0.3494024  0.9103035    0.00000       Uiso       1.00
      C232          C  0.5260342  0.3413809  0.9257320    0.00000       Uiso       1.00
      H243          H  0.5169638  0.3379631  0.9603668    0.00000       Uiso       1.00
      H244          H  0.4622053  0.3710732  0.9472477    0.00000       Uiso       1.00
      C233          C  0.4508437  0.3193856  0.2172882    0.00000       Uiso       1.00
      C234          C  0.4462351  0.3344952  0.2298636    0.00000       Uiso       1.00
      C235          C  0.4657332  0.2963562  0.2178326    0.00000       Uiso       1.00
      C236          C  0.4761250  0.2885473  0.2305668    0.00000       Uiso       1.00
      C237          C  0.4717171  0.3036991  0.2429414    0.00000       Uiso       1.00
      C238          C  0.4567060  0.3267180  0.2425238    0.00000       Uiso       1.00
      H245          H  0.4345383  0.3522781  0.2300512    0.00000       Uiso       1.00
      H246          H  0.4693020  0.2844258  0.2083969    0.00000       Uiso       1.00
      C239          C  0.2621616  0.5430395  0.1454689    0.00000       Uiso       1.00
      C240          C  0.2390845  0.5509912  0.1559753    0.00000       Uiso       1.00
      C241          C  0.2697533  0.5584804  0.1373292    0.00000       Uiso       1.00
      C242          C  0.2544317  0.5815984  0.1399177    0.00000       Uiso       1.00
      C243          C  0.2313124  0.5895500  0.1506672    0.00000       Uiso       1.00
      C244          C  0.2237260  0.5741143  0.1586748    0.00000       Uiso       1.00
      H247          H  0.2328133  0.5394765  0.1620617    0.00000       Uiso       1.00
      H248          H  0.2875512  0.5526252  0.1289633    0.00000       Uiso       1.00
       N97          N  0.4866859  0.3689536  0.9022743    0.00000       Uiso       1.00
      H249          H  0.4995737  0.3658616  0.8864843    0.00000       Uiso       1.00
      H250          H  0.4760809  0.3855321  0.9044713    0.00000       Uiso       1.00
       N98          N  0.4919446  0.2639331  0.2307378    0.00000       Uiso       1.00
      H251          H  0.4979502  0.2610292  0.2405265    0.00000       Uiso       1.00
      H252          H  0.5046800  0.2587925  0.2150749    0.00000       Uiso       1.00
       N99          N  0.2983808  0.2441989  0.1565078    0.00000       Uiso       1.00
      H253          H  0.2896773  0.2360993  0.1645666    0.00000       Uiso       1.00
      H254          H  0.3148404  0.2330509  0.1487034    0.00000       Uiso       1.00
      N100          N  0.1992449  0.5820444  0.1700351    0.00000       Uiso       1.00
      H255          H  0.1905046  0.5988433  0.1706834    0.00000       Uiso       1.00
      H256          H  0.1941241  0.5758258  0.1856427    0.00000       Uiso       1.00
      N101          N  0.2630513  0.5975968  0.1311232    0.00000       Uiso       1.00
      H257          H  0.2501579  0.6133839  0.1342293    0.00000       Uiso       1.00
      H258          H  0.2736499  0.5954146  0.1145427    0.00000       Uiso       1.00
      N102          N  0.4515263  0.3432522  0.2556497    0.00000       Uiso       1.00
      H259          H  0.4602369  0.3351861  0.2637421    0.00000       Uiso       1.00
      H260          H  0.4350682  0.3510466  0.2668046    0.00000       Uiso       1.00
      N103          N  0.5505167  0.3300277  0.9177918    0.00000       Uiso       1.00
      H261          H  0.5592498  0.3293945  0.9009923    0.00000       Uiso       1.00
      H262          H  0.5556473  0.3144146  0.9239966    0.00000       Uiso       1.00
      N104          N  0.2579868  0.2690398  0.2358491    0.00000       Uiso       1.00
      H263          H  0.2519869  0.2592485  0.2387443    0.00000       Uiso       1.00
      H264          H  0.2452467  0.2846982  0.2410038    0.00000       Uiso       1.00
      C245          C  0.3423547  0.3013906  0.1472870    0.00000       Uiso       1.00
      C246          C  0.3309145  0.3217756  0.1574806    0.00000       Uiso       1.00
      C247          C  0.3088492  0.3291399  0.1751672    0.00000       Uiso       1.00
      C248          C  0.2985230  0.3166205  0.1823776    0.00000       Uiso       1.00
      C249          C  0.3100404  0.2961005  0.1723291    0.00000       Uiso       1.00
      C250          C  0.3321505  0.2886857  0.1546466    0.00000       Uiso       1.00
      C251          C  0.4394828  0.3634343  0.0279029    0.00000       Uiso       1.00
      C252          C  0.4586216  0.3646938  0.0189537    0.00000       Uiso       1.00
      C253          C  0.4364827  0.3590608  0.0132100    0.00000       Uiso       1.00
      C254          C  0.4521041  0.3559631  0.9903672    0.00000       Uiso       1.00
      C255          C  0.4711556  0.3574447  0.9813601    0.00000       Uiso       1.00
      C256          C  0.4741572  0.3618672  0.9960474    0.00000       Uiso       1.00
      C257          C  0.4189584  0.3423489  0.1780720    0.00000       Uiso       1.00
      C258          C  0.4075227  0.3525242  0.1984661    0.00000       Uiso       1.00
      C259          C  0.4410283  0.3246689  0.1706918    0.00000       Uiso       1.00
      C260          C  0.4513633  0.3174472  0.1832048    0.00000       Uiso       1.00
      C261          C  0.4398505  0.3274773  0.2037339    0.00000       Uiso       1.00
      C262          C  0.4177359  0.3451532  0.2111645    0.00000       Uiso       1.00
      C263          C  0.3103135  0.4719636  0.1365291    0.00000       Uiso       1.00
      C264          C  0.2911700  0.4809139  0.1352781    0.00000       Uiso       1.00
      C265          C  0.3133092  0.4866527  0.1409155    0.00000       Uiso       1.00
      C266          C  0.2976786  0.5094923  0.1440345    0.00000       Uiso       1.00
      C267          C  0.2786222  0.5185007  0.1425613    0.00000       Uiso       1.00
      C268          C  0.2756250  0.5038173  0.1381260    0.00000       Uiso       1.00
      N105          N  0.3337646  0.4780200  0.1420007    0.00000       Uiso       1.00
      H265          H  0.3331860  0.4907424  0.1452766    0.00000       Uiso       1.00
      H266          H  0.3475151  0.4710322  0.1272655    0.00000       Uiso       1.00
      N106          N  0.3015505  0.5242556  0.1493199    0.00000       Uiso       1.00
      H267          H  0.2890221  0.5401334  0.1510994    0.00000       Uiso       1.00
      H268          H  0.3161493  0.5233994  0.1367886    0.00000       Uiso       1.00
      N107          N  0.2557401  0.5124891  0.1359837    0.00000       Uiso       1.00
      H269          H  0.2461335  0.5291201  0.1384385    0.00000       Uiso       1.00
      H270          H  0.2467915  0.5050679  0.1474749    0.00000       Uiso       1.00
      N108          N  0.2868944  0.4657766  0.1311767    0.00000       Uiso       1.00
      H271          H  0.2725486  0.4748891  0.1307757    0.00000       Uiso       1.00
      H272          H  0.2856843  0.4544271  0.1435393    0.00000       Uiso       1.00
      N109          N  0.4629019  0.3687820  0.0340946    0.00000       Uiso       1.00
      H273          H  0.4772433  0.3691914  0.0249824    0.00000       Uiso       1.00
      H274          H  0.4641228  0.3564093  0.0454330    0.00000       Uiso       1.00
      N110          N  0.4940371  0.3640175  0.9873773    0.00000       Uiso       1.00
      H275          H  0.5036374  0.3615776  0.9707442    0.00000       Uiso       1.00
      H276          H  0.5029942  0.3525199  0.9947884    0.00000       Uiso       1.00
      N111          N  0.4160319  0.3579674  0.0218418    0.00000       Uiso       1.00
      H277          H  0.4166064  0.3547027  0.0091165    0.00000       Uiso       1.00
      H278          H  0.4022778  0.3726963  0.0288428    0.00000       Uiso       1.00
      N112          N  0.4482281  0.3506906  0.9755992    0.00000       Uiso       1.00
      H279          H  0.4607501  0.3489254  0.9597199    0.00000       Uiso       1.00
      H280          H  0.4336240  0.3632210  0.9764667    0.00000       Uiso       1.00
      N113          N  0.2959461  0.3506696  0.1869902    0.00000       Uiso       1.00
      H281          H  0.2805303  0.3533546  0.1991354    0.00000       Uiso       1.00
      H282          H  0.2947719  0.3633647  0.1759790    0.00000       Uiso       1.00
      N114          N  0.3658623  0.2930328  0.1278724    0.00000       Uiso       1.00
      H283          H  0.3708230  0.3039133  0.1246023    0.00000       Uiso       1.00
      H284          H  0.3663796  0.2915467  0.1143495    0.00000       Uiso       1.00
      N115          N  0.3455018  0.2666694  0.1434327    0.00000       Uiso       1.00
      H285          H  0.3360246  0.2595102  0.1504582    0.00000       Uiso       1.00
      H286          H  0.3590561  0.2565614  0.1452616    0.00000       Uiso       1.00
      N116          N  0.2746083  0.3257589  0.2010150    0.00000       Uiso       1.00
      H287          H  0.2694802  0.3150062  0.2043651    0.00000       Uiso       1.00
      H288          H  0.2649484  0.3405783  0.1963884    0.00000       Uiso       1.00
      N117          N  0.3840102  0.3719313  0.2068414    0.00000       Uiso       1.00
      H289          H  0.3783823  0.3771514  0.2215881    0.00000       Uiso       1.00
      H290          H  0.3741166  0.3671198  0.2088220    0.00000       Uiso       1.00
      N118          N  0.4539270  0.3128652  0.1491516    0.00000       Uiso       1.00
      H291          H  0.4693471  0.3007224  0.1464557    0.00000       Uiso       1.00
      H292          H  0.4550906  0.3238878  0.1364664    0.00000       Uiso       1.00
      N119          N  0.4752822  0.2988180  0.1740498    0.00000       Uiso       1.00
      H293          H  0.4804166  0.2954581  0.1847996    0.00000       Uiso       1.00
      H294          H  0.4849335  0.3034577  0.1592346    0.00000       Uiso       1.00
      N120          N  0.4043894  0.3563474  0.2331909    0.00000       Uiso       1.00
      H295          H  0.4138729  0.3493154  0.2403438    0.00000       Uiso       1.00
      H296          H  0.3908404  0.3545094  0.2432972    0.00000       Uiso       1.00
      C269          C  0.3748948  0.3379043  0.1340882    0.00000       Uiso       1.00
      C270          C  0.3627259  0.3614437  0.1338021    0.00000       Uiso       1.00
      C271          C  0.3395359  0.3715218  0.1427633    0.00000       Uiso       1.00
      C272          C  0.3294304  0.3587611  0.1501223    0.00000       Uiso       1.00
      C273          C  0.3418467  0.3353680  0.1496158    0.00000       Uiso       1.00
      C274          C  0.3647269  0.3251329  0.1417160    0.00000       Uiso       1.00
      H297          H  0.3747982  0.3071856  0.1416957    0.00000       Uiso       1.00
      H298          H  0.3117901  0.3673618  0.1560293    0.00000       Uiso       1.00
      C275          C  0.3917243  0.3715140  0.0993718    0.00000       Uiso       1.00
      C276          C  0.4028034  0.3839791  0.0880014    0.00000       Uiso       1.00
      C277          C  0.3958654  0.3572927  0.0862640    0.00000       Uiso       1.00
      C278          C  0.4113590  0.3545633  0.0634012    0.00000       Uiso       1.00
      C279          C  0.4228374  0.3664833  0.0524240    0.00000       Uiso       1.00
      C280          C  0.4181013  0.3814561  0.0650655    0.00000       Uiso       1.00
      H299          H  0.4259939  0.3915143  0.0571895    0.00000       Uiso       1.00
      H300          H  0.4144852  0.3428353  0.0543642    0.00000       Uiso       1.00
      C281          C  0.3871186  0.3660628  0.1384251    0.00000       Uiso       1.00
      C282          C  0.3749603  0.3657558  0.1619643    0.00000       Uiso       1.00
      C283          C  0.4103081  0.3571106  0.1283390    0.00000       Uiso       1.00
      C284          C  0.4204226  0.3497403  0.1410930    0.00000       Uiso       1.00
      C285          C  0.4080166  0.3502259  0.1644866    0.00000       Uiso       1.00
      C286          C  0.3851374  0.3581167  0.1747288    0.00000       Uiso       1.00
      H301          H  0.3750741  0.3581209  0.1926761    0.00000       Uiso       1.00
      H302          H  0.4380617  0.3438410  0.1324871    0.00000       Uiso       1.00
      C287          C  0.3581004  0.4005019  0.1283856    0.00000       Uiso       1.00
      C288          C  0.3470101  0.4118833  0.1159311    0.00000       Uiso       1.00
      C289          C  0.3539605  0.4135971  0.1426180    0.00000       Uiso       1.00
      C290          C  0.3384579  0.4364575  0.1453678    0.00000       Uiso       1.00
      C291          C  0.3269685  0.4474452  0.1334582    0.00000       Uiso       1.00
      C292          C  0.3317031  0.4348169  0.1184747    0.00000       Uiso       1.00
      H303          H  0.3238020  0.4427018  0.1084240    0.00000       Uiso       1.00
      H304          H  0.3353335  0.4454841  0.1571033    0.00000       Uiso       1.00
      N121          N  0.3244456  0.3964653  0.1450491    0.00000       Uiso       1.00
      H305          H  0.3086258  0.4002570  0.1517569    0.00000       Uiso       1.00
      H306          H  0.3293907  0.4036030  0.1298849    0.00000       Uiso       1.00
      N122          N  0.3661067  0.4037314  0.1554230    0.00000       Uiso       1.00
      H307          H  0.3607937  0.4157484  0.1645378    0.00000       Uiso       1.00
      H308          H  0.3826346  0.3971837  0.1446472    0.00000       Uiso       1.00
      N123          N  0.3503300  0.3741057  0.1738664    0.00000       Uiso       1.00
      H309          H  0.3442701  0.3727298  0.1904762    0.00000       Uiso       1.00
      H310          H  0.3478356  0.3649496  0.1691911    0.00000       Uiso       1.00
      N124          N  0.3984359  0.4002431  0.1007348    0.00000       Uiso       1.00
      H311          H  0.4076124  0.4076811  0.0901924    0.00000       Uiso       1.00
      H312          H  0.4026498  0.3920264  0.1126414    0.00000       Uiso       1.00
      N125          N  0.3513755  0.3991643  0.0996563    0.00000       Uiso       1.00
      H313          H  0.3421906  0.4097133  0.0922280    0.00000       Uiso       1.00
      H314          H  0.3471707  0.3872503  0.1078628    0.00000       Uiso       1.00
      N126          N  0.4253881  0.3548474  0.1033934    0.00000       Uiso       1.00
      H315          H  0.4412093  0.3481430  0.0995957    0.00000       Uiso       1.00
      H316          H  0.4204330  0.3700180  0.0962694    0.00000       Uiso       1.00
      N127          N  0.3837300  0.3444780  0.0961185    0.00000       Uiso       1.00
      H317          H  0.3890421  0.3353736  0.0840934    0.00000       Uiso       1.00
      H318          H  0.3672001  0.3552475  0.1026758    0.00000       Uiso       1.00
      N128          N  0.3995267  0.3260097  0.1257278    0.00000       Uiso       1.00
      H319          H  0.4044154  0.3373122  0.1208410    0.00000       Uiso       1.00
      H320          H  0.4080116  0.3162171  0.1127025    0.00000       Uiso       1.00
      C293          C  0.0000290  0.1249929  0.6251079    0.00000       Uiso       1.00
      C294          C  0.0403995  0.9488543  0.6559294    0.00000       Uiso       1.00
      C295          C  0.0555167  0.9568155  0.6454301    0.00000       Uiso       1.00
      C296          C  0.0785526  0.9413818  0.6372766    0.00000       Uiso       1.00
      C297          C  0.0863605  0.9182615  0.6398445    0.00000       Uiso       1.00
      C298          C  0.0712012  0.9103003  0.6505868    0.00000       Uiso       1.00
      C299          C  0.0481757  0.9257287  0.6586083    0.00000       Uiso       1.00
      H321          H  0.0226112  0.9603636  0.6620260    0.00000       Uiso       1.00
      H322          H  0.0904889  0.9472445  0.6289160    0.00000       Uiso       1.00
      C300          C  0.8318104  0.2172850  0.6806029    0.00000       Uiso       1.00
      C301          C  0.8238437  0.2298604  0.6654934    0.00000       Uiso       1.00
      C302          C  0.8163764  0.2178294  0.7036324    0.00000       Uiso       1.00
      C303          C  0.7932505  0.2305636  0.7114413    0.00000       Uiso       1.00
      C304          C  0.7852837  0.2429382  0.6962895    0.00000       Uiso       1.00
      C305          C  0.8007125  0.2425206  0.6732706    0.00000       Uiso       1.00
      H323          H  0.8353528  0.2300479  0.6477104    0.00000       Uiso       1.00
      H324          H  0.8222435  0.2083937  0.7155629    0.00000       Uiso       1.00
      C306          C  0.0923120  0.1454655  0.4569491    0.00000       Uiso       1.00
      C307          C  0.1048827  0.1559719  0.4489973    0.00000       Uiso       1.00
      C308          C  0.0928601  0.1373257  0.4415080    0.00000       Uiso       1.00
      C309          C  0.1055932  0.1399143  0.4183901    0.00000       Uiso       1.00
      C310          C  0.1179630  0.1506637  0.4104385    0.00000       Uiso       1.00
      C311          C  0.1175418  0.1586714  0.4258741    0.00000       Uiso       1.00
      H325          H  0.1050676  0.1620583  0.4605120    0.00000       Uiso       1.00
      H326          H  0.0834281  0.1289599  0.4473633    0.00000       Uiso       1.00
      C312          C  0.0204769  0.1804054  0.7174495    0.00000       Uiso       1.00
      C313          C  0.0309901  0.1652847  0.7300114    0.00000       Uiso       1.00
      C314          C  0.0123269  0.2034344  0.7180145    0.00000       Uiso       1.00
      C315          C  0.0149120  0.2112319  0.7307557    0.00000       Uiso       1.00
      C316          C  0.0256682  0.1960690  0.7431168    0.00000       Uiso       1.00
      C317          C  0.0336862  0.1730505  0.7426786    0.00000       Uiso       1.00
      H327          H  0.0370845  0.1475015  0.7301831    0.00000       Uiso       1.00
      H328          H  0.0039557  0.2153733  0.7085895    0.00000       Uiso       1.00
      N129          N  0.7772599  0.2307346  0.7360555    0.00000       Uiso       1.00
      H329          H  0.7614655  0.2405234  0.7389594    0.00000       Uiso       1.00
      H330          H  0.7794542  0.2367091  0.7444698    0.00000       Uiso       1.00
      N130          N  0.1057681  0.1311197  0.4023917    0.00000       Uiso       1.00
      H331          H  0.1155554  0.1342258  0.3866045    0.00000       Uiso       1.00
      H332          H  0.0901018  0.1387075  0.4053190    0.00000       Uiso       1.00
      N131          N  0.0316333  0.9177886  0.6699615    0.00000       Uiso       1.00
      H333          H  0.0396997  0.9009891  0.6705946    0.00000       Uiso       1.00
      H334          H  0.0238265  0.9230967  0.6613075    0.00000       Uiso       1.00
      N132          N  0.0450538  0.1565046  0.7557896    0.00000       Uiso       1.00
      H335          H  0.0456985  0.1645635  0.7638893    0.00000       Uiso       1.00
      H336          H  0.0606666  0.1451721  0.7452996    0.00000       Uiso       1.00
      N133          N  0.0061064  0.2358460  0.7309487    0.00000       Uiso       1.00
      H337          H  0.0092112  0.2387411  0.7407401    0.00000       Uiso       1.00
      H338          H  0.9895220  0.2442549  0.7369307    0.00000       Uiso       1.00
      N134          N  0.1306625  0.1700317  0.4179441    0.00000       Uiso       1.00
      H339          H  0.1387547  0.1706799  0.4011452    0.00000       Uiso       1.00
      H340          H  0.1418214  0.1613730  0.4232445    0.00000       Uiso       1.00
      N135          N  0.7927663  0.2556464  0.6567364    0.00000       Uiso       1.00
      H341          H  0.7759632  0.2637388  0.6648025    0.00000       Uiso       1.00
      H342          H  0.7989758  0.2451666  0.6453945    0.00000       Uiso       1.00
      N136          N  0.1109817  0.9022710  0.6310356    0.00000       Uiso       1.00
      H343          H  0.1138839  0.8864810  0.6341276    0.00000       Uiso       1.00
      H344          H  0.1161350  0.9051915  0.6386260    0.00000       Uiso       1.00
      C318          C  0.0223673  0.0189504  0.6352947    0.00000       Uiso       1.00
      C319          C  0.0325569  0.0278997  0.6365539    0.00000       Uiso       1.00
      C320          C  0.0502501  0.0132067  0.6409273    0.00000       Uiso       1.00
      C321          C  0.0574707  0.9903639  0.6440260    0.00000       Uiso       1.00
      C322          C  0.0474261  0.9813569  0.6425445    0.00000       Uiso       1.00
      C323          C  0.0297372  0.9960442  0.6381221    0.00000       Uiso       1.00
      C324          C  0.9029118  0.1780688  0.6576397    0.00000       Uiso       1.00
      C325          C  0.8939535  0.1984629  0.6474646    0.00000       Uiso       1.00
      C326          C  0.8882222  0.1706886  0.6753197    0.00000       Uiso       1.00
      C327          C  0.8653742  0.1832016  0.6825413    0.00000       Uiso       1.00
      C328          C  0.8563579  0.2037307  0.6725112    0.00000       Uiso       1.00
      C329          C  0.8710419  0.2111613  0.6548355    0.00000       Uiso       1.00
      C330          C  0.0530998  0.1365260  0.5280250    0.00000       Uiso       1.00
      C331          C  0.0734945  0.1352746  0.5190746    0.00000       Uiso       1.00
      C332          C  0.0457176  0.1409125  0.5133359    0.00000       Uiso       1.00
      C333          C  0.0582293  0.1440315  0.4904963    0.00000       Uiso       1.00
      C334          C  0.0787590  0.1425580  0.4814878    0.00000       Uiso       1.00
      C335          C  0.0861916  0.1381225  0.4961712    0.00000       Uiso       1.00
      C336          C  0.0115474  0.1574773  0.6782129    0.00000       Uiso       1.00
      C337          C  0.0103010  0.1472836  0.6985978    0.00000       Uiso       1.00
      C338          C  0.0159259  0.1751641  0.6708487    0.00000       Uiso       1.00
      C339          C  0.0190417  0.1823745  0.6833680    0.00000       Uiso       1.00
      C340          C  0.0175730  0.1723258  0.7038880    0.00000       Uiso       1.00
      C341          C  0.0131456  0.1546432  0.7113028    0.00000       Uiso       1.00
      N137          N  0.0170059  0.1869872  0.6493191    0.00000       Uiso       1.00
      H345          H  0.0202763  0.1991325  0.6466342    0.00000       Uiso       1.00
      H346          H  0.0022676  0.1937433  0.6503033    0.00000       Uiso       1.00
      N138          N  0.0243188  0.2010120  0.6742298    0.00000       Uiso       1.00
      H347          H  0.0260968  0.2043622  0.6849825    0.00000       Uiso       1.00
      H348          H  0.0117813  0.2147490  0.6721690    0.00000       Uiso       1.00
      N139          N  0.0110083  0.1434293  0.7333190    0.00000       Uiso       1.00
      H349          H  0.0134599  0.1504548  0.7404782    0.00000       Uiso       1.00
      H350          H  0.0225068  0.1270645  0.7307669    0.00000       Uiso       1.00
      N140          N  0.0062082  0.1278689  0.7069555    0.00000       Uiso       1.00
      H351          H  0.0058096  0.1226355  0.7216975    0.00000       Uiso       1.00
      H352          H  0.0185765  0.1153148  0.6957973    0.00000       Uiso       1.00
      N141          N  0.9090907  0.2068383  0.6280575    0.00000       Uiso       1.00
      H353          H  0.8999720  0.2215850  0.6228374    0.00000       Uiso       1.00
      H354          H  0.9204341  0.1956915  0.6154932    0.00000       Uiso       1.00
      N142          N  0.8623620  0.2331878  0.6436414    0.00000       Uiso       1.00
      H355          H  0.8457256  0.2403407  0.6506733    0.00000       Uiso       1.00
      H356          H  0.8697742  0.2306505  0.6272743    0.00000       Uiso       1.00
      N143          N  0.8968637  0.1491483  0.6871232    0.00000       Uiso       1.00
      H357          H  0.8841395  0.1464523  0.6992660    0.00000       Uiso       1.00
      H358          H  0.9038642  0.1501262  0.6938803    0.00000       Uiso       1.00
      N144          N  0.8506103  0.1740466  0.7011704    0.00000       Uiso       1.00
      H359          H  0.8347262  0.1847964  0.7045302    0.00000       Uiso       1.00
      H360          H  0.8514786  0.1719733  0.7149056    0.00000       Uiso       1.00
      N145          N  0.0620692  0.0218385  0.6420205    0.00000       Uiso       1.00
      H361          H  0.0742202  0.0091131  0.6452851    0.00000       Uiso       1.00
      H362          H  0.0510529  0.0333545  0.6542112    0.00000       Uiso       1.00
      N146          N  0.0029460  0.0340914  0.6312066    0.00000       Uiso       1.00
      H363          H  0.9996686  0.0499312  0.6295288    0.00000       Uiso       1.00
      H364          H  0.9894233  0.0331166  0.6442053    0.00000       Uiso       1.00
      N147          N  0.0185271  0.9873741  0.6359719    0.00000       Uiso       1.00
      H365          H  0.0255600  0.9707410  0.6384119    0.00000       Uiso       1.00
      H366          H  0.0203545  0.9908212  0.6205926    0.00000       Uiso       1.00
      N148          N  0.0761147  0.9755960  0.6492984    0.00000       Uiso       1.00
      H367          H  0.0794719  0.9597166  0.6510636    0.00000       Uiso       1.00
      H368          H  0.0714858  0.9807534  0.6635873    0.00000       Uiso       1.00
      N149          N  0.0818716  0.1311730  0.5342119    0.00000       Uiso       1.00
      H369          H  0.0966185  0.1307718  0.5250993    0.00000       Uiso       1.00
      H370          H  0.0838587  0.1164688  0.5421126    0.00000       Uiso       1.00
      N150          N  0.0241769  0.1419980  0.5219687    0.00000       Uiso       1.00
      H371          H  0.0214796  0.1452740  0.5092463    0.00000       Uiso       1.00
      H372          H  0.0114862  0.1541785  0.5334956    0.00000       Uiso       1.00
      N151          N  0.0490719  0.1493170  0.4757330    0.00000       Uiso       1.00
      H373          H  0.0598209  0.1510963  0.4598553    0.00000       Uiso       1.00
      H374          H  0.0342502  0.1636014  0.4809032    0.00000       Uiso       1.00
      N152          N  0.1082190  0.1359800  0.4874992    0.00000       Uiso       1.00
      H375          H  0.1153707  0.1384347  0.4708683    0.00000       Uiso       1.00
      H376          H  0.1183322  0.1205976  0.4909327    0.00000       Uiso       1.00
      C342          C  0.0091376  0.0879982  0.6160093    0.00000       Uiso       1.00
      C343          C  0.0088464  0.0993686  0.6284744    0.00000       Uiso       1.00
      C344          C  0.0178136  0.0862607  0.6426954    0.00000       Uiso       1.00
      C345          C  0.0251827  0.0633979  0.6454247    0.00000       Uiso       1.00
      C346          C  0.0246812  0.0524208  0.6335049    0.00000       Uiso       1.00
      C347          C  0.0167757  0.0650623  0.6185323    0.00000       Uiso       1.00
      H377          H  0.0167589  0.0571863  0.6084743    0.00000       Uiso       1.00
      H378          H  0.0310938  0.0543608  0.6571525    0.00000       Uiso       1.00
      C348          C  0.9743986  0.1384219  0.6339259    0.00000       Uiso       1.00
      C349          C  0.9630176  0.1619610  0.6342331    0.00000       Uiso       1.00
      C350          C  0.9612952  0.1283358  0.6428776    0.00000       Uiso       1.00
      C351          C  0.9384267  0.1410898  0.6502481    0.00000       Uiso       1.00
      C352          C  0.9274390  0.1644834  0.6497627    0.00000       Uiso       1.00
      C353          C  0.9400760  0.1747256  0.6418723    0.00000       Uiso       1.00
      H379          H  0.9321920  0.1926729  0.6418683    0.00000       Uiso       1.00
      H380          H  0.9293936  0.1324839  0.6561471    0.00000       Uiso       1.00
      C354          C  0.0134565  0.1283824  0.5994866    0.00000       Uiso       1.00
      C355          C  0.0370012  0.1159277  0.5881051    0.00000       Uiso       1.00
      C356          C  0.0033640  0.1426152  0.5863916    0.00000       Uiso       1.00
      C357          C  0.0161168  0.1453651  0.5635312    0.00000       Uiso       1.00
      C358          C  0.0395158  0.1334551  0.5525434    0.00000       Uiso       1.00
      C359          C  0.0497647  0.1184713  0.5651715    0.00000       Uiso       1.00
      H381          H  0.0677165  0.1084203  0.5572865    0.00000       Uiso       1.00
      H382          H  0.0075056  0.1571010  0.5545046    0.00000       Uiso       1.00
      C360          C  0.0034145  0.1337988  0.6385448    0.00000       Uiso       1.00
      C361          C  0.9909597  0.1340845  0.6620842    0.00000       Uiso       1.00
      C362          C  0.0176429  0.1427605  0.6284667    0.00000       Uiso       1.00
      C363          C  0.0203894  0.1501195  0.6412273    0.00000       Uiso       1.00
      C364          C  0.0084800  0.1496126  0.6646205    0.00000       Uiso       1.00
      C365          C  0.9934999  0.1417122  0.6748556    0.00000       Uiso       1.00
      H383          H  0.9834492  0.1416915  0.6928030    0.00000       Uiso       1.00
      H384          H  0.0321223  0.1560270  0.6326266    0.00000       Uiso       1.00
      N153          N  0.0200949  0.0961150  0.6555098    0.00000       Uiso       1.00
      H385          H  0.0268080  0.0840899  0.6646140    0.00000       Uiso       1.00
      H386          H  0.0049253  0.1081909  0.6657329    0.00000       Uiso       1.00
      N154          N  0.0304470  0.1450467  0.6035232    0.00000       Uiso       1.00
      H387          H  0.0395587  0.1517548  0.5997314    0.00000       Uiso       1.00
      H388          H  0.0196667  0.1550221  0.5977752    0.00000       Uiso       1.00
      N155          N  0.0489107  0.0996526  0.6008241    0.00000       Uiso       1.00
      H389          H  0.0655238  0.0922242  0.5902750    0.00000       Uiso       1.00
      H390          H  0.0442406  0.0880000  0.6079812    0.00000       Uiso       1.00
      N156          N  0.9757457  0.1738632  0.6258836    0.00000       Uiso       1.00
      H391          H  0.9651958  0.1904730  0.6272596    0.00000       Uiso       1.00
      H392          H  0.9876541  0.1698656  0.6097648    0.00000       Uiso       1.00
      N157          N  0.9746886  0.1257235  0.6739789    0.00000       Uiso       1.00
      H393          H  0.9672598  0.1270844  0.6905899    0.00000       Uiso       1.00
      H394          H  0.9829024  0.1096084  0.6699665    0.00000       Uiso       1.00
      N158          N  0.9784126  0.1554209  0.5962573    0.00000       Uiso       1.00
      H395          H  0.9746108  0.1645359  0.5842405    0.00000       Uiso       1.00
      H396          H  0.9712840  0.1656331  0.6083425    0.00000       Uiso       1.00
      N159          N  0.9711608  0.1033902  0.6451406    0.00000       Uiso       1.00
      H397          H  0.9591376  0.0995925  0.6518448    0.00000       Uiso       1.00
      H398          H  0.9777207  0.0976327  0.6551111    0.00000       Uiso       1.00
      N160          N  0.0007715  0.1007317  0.5997455    0.00000       Uiso       1.00
      H399          H  0.9958773  0.1169208  0.5997559    0.00000       Uiso       1.00
      H400          H  0.9877468  0.0994183  0.6042788    0.00000       Uiso       1.00
      C366          C  0.2499726  0.9999931  0.9995485    0.00000       Uiso       1.00
      C367          C  0.4261153  0.9288148  0.8637308    0.00000       Uiso       1.00
      C368          C  0.4181656  0.9241923  0.8868002    0.00000       Uiso       1.00
      C369          C  0.4336133  0.9093063  0.8943855    0.00000       Uiso       1.00
      C370          C  0.4567358  0.8989317  0.8790650    0.00000       Uiso       1.00
      C371          C  0.4646854  0.9033535  0.8559532    0.00000       Uiso       1.00
      C372          C  0.4492431  0.9183611  0.8483733    0.00000       Uiso       1.00
      H401          H  0.4145953  0.9405092  0.8574649    0.00000       Uiso       1.00
      H402          H  0.4277596  0.9057269  0.9121776    0.00000       Uiso       1.00
      C373          C  0.1575806  0.1127417  0.9237478    0.00000       Uiso       1.00
      C374          C  0.1450084  0.1358112  0.9283703    0.00000       Uiso       1.00
      C375          C  0.1570189  0.1051564  0.9088618    0.00000       Uiso       1.00
      C376          C  0.1442709  0.1204769  0.8984872    0.00000       Uiso       1.00
      C377          C  0.1318995  0.1435888  0.9029090    0.00000       Uiso       1.00
      C378          C  0.1323344  0.1511687  0.9179165    0.00000       Uiso       1.00
      H403          H  0.1448339  0.1420770  0.9400647    0.00000       Uiso       1.00
      H404          H  0.1664520  0.0873644  0.9052824    0.00000       Uiso       1.00
      C379          C  0.2296169  0.0757935  0.1122971    0.00000       Uiso       1.00
      C380          C  0.2191196  0.0711710  0.1353665    0.00000       Uiso       1.00
      C381          C  0.2377638  0.0906795  0.1047119    0.00000       Uiso       1.00
      C382          C  0.2351913  0.1010541  0.1200323    0.00000       Uiso       1.00
      C383          C  0.2244509  0.0966323  0.1431442    0.00000       Uiso       1.00
      C384          C  0.2164361  0.0816248  0.1507241    0.00000       Uiso       1.00
      H405          H  0.2130282  0.0594766  0.1416324    0.00000       Uiso       1.00
      H406          H  0.2461228  0.0942589  0.0869198    0.00000       Uiso       1.00
      C385          C  0.1945284  0.8872442  0.0753496    0.00000       Uiso       1.00
      C386          C  0.2096482  0.8641747  0.0707271    0.00000       Uiso       1.00
      C387          C  0.1714955  0.8948294  0.0902356    0.00000       Uiso       1.00
      C388          C  0.1636934  0.8795089  0.1006102    0.00000       Uiso       1.00
      C389          C  0.1788556  0.8563971  0.0961884    0.00000       Uiso       1.00
      C390          C  0.2018779  0.8488172  0.0811809    0.00000       Uiso       1.00
      H407          H  0.2274341  0.8579088  0.0590327    0.00000       Uiso       1.00
      H408          H  0.1595571  0.9126214  0.0938150    0.00000       Uiso       1.00
      N161          N  0.1440817  0.1118643  0.8826709    0.00000       Uiso       1.00
      H409          H  0.1342847  0.1247561  0.8766781    0.00000       Uiso       1.00
      H410          H  0.1381044  0.1012595  0.8908341    0.00000       Uiso       1.00
      N162          N  0.2439930  0.1168704  0.1114198    0.00000       Uiso       1.00
      H411          H  0.2408984  0.1228632  0.1243115    0.00000       Uiso       1.00
      H412          H  0.2363970  0.1296107  0.1033539    0.00000       Uiso       1.00
      N163          N  0.4571709  0.9235553  0.8239004    0.00000       Uiso       1.00
      H413          H  0.4739737  0.9148560  0.8151598    0.00000       Uiso       1.00
      H414          H  0.4518631  0.9400121  0.8214126    0.00000       Uiso       1.00
      N164          N  0.2184230  0.8243443  0.0759866    0.00000       Uiso       1.00
      H415          H  0.2103609  0.8156037  0.0846859    0.00000       Uiso       1.00
      H416          H  0.2297673  0.8192169  0.0802575    0.00000       Uiso       1.00
      N165          N  0.1390754  0.8881215  0.1164265    0.00000       Uiso       1.00
      H417          H  0.1361772  0.8752298  0.1224193    0.00000       Uiso       1.00
      H418          H  0.1306563  0.8987264  0.1082633    0.00000       Uiso       1.00
      N166          N  0.2050853  0.0764306  0.1751969    0.00000       Uiso       1.00
      H419          H  0.2044481  0.0851298  0.1839375    0.00000       Uiso       1.00
      H420          H  0.2137465  0.0599737  0.1776848    0.00000       Uiso       1.00
      N167          N  0.1192123  0.1756415  0.9231108    0.00000       Uiso       1.00
      H421          H  0.1111088  0.1843821  0.9144115    0.00000       Uiso       1.00
      H422          H  0.1297000  0.1807689  0.9188399    0.00000       Uiso       1.00
      N168          N  0.4727413  0.8831155  0.8876776    0.00000       Uiso       1.00
      H423          H  0.4885312  0.8771227  0.8747859    0.00000       Uiso       1.00
      H424          H  0.4698197  0.8703752  0.8957434    0.00000       Uiso       1.00
      C391          C  0.3560207  0.9674726  0.9158198    0.00000       Uiso       1.00
      C392          C  0.3470754  0.9560244  0.9349489    0.00000       Uiso       1.00
      C393          C  0.3617744  0.9339597  0.9379313    0.00000       Uiso       1.00
      C394          C  0.3846186  0.9236419  0.9223017    0.00000       Uiso       1.00
      C395          C  0.3936218  0.9351672  0.9032596    0.00000       Uiso       1.00
      C396          C  0.3789286  0.9572766  0.9002758    0.00000       Uiso       1.00
      C397          C  0.1968388  0.0645932  0.9555797    0.00000       Uiso       1.00
      C398          C  0.1764452  0.0837223  0.9670280    0.00000       Uiso       1.00
      C399          C  0.2042046  0.0616108  0.9335150    0.00000       Uiso       1.00
      C400          C  0.1916781  0.0772405  0.9231972    0.00000       Uiso       1.00
      C401          C  0.1711495  0.0962823  0.9347226    0.00000       Uiso       1.00
      C402          C  0.1637333  0.0992662  0.9568320    0.00000       Uiso       1.00
      C403          C  0.2385071  0.0439615  0.0641486    0.00000       Uiso       1.00
      C404          C  0.2397716  0.0325133  0.0832777    0.00000       Uiso       1.00
      C405          C  0.2341239  0.0660262  0.0611662    0.00000       Uiso       1.00
      C406          C  0.2310207  0.0763440  0.0767958    0.00000       Uiso       1.00
      C407          C  0.2325074  0.0648187  0.0958377    0.00000       Uiso       1.00
      C408          C  0.2369396  0.0427093  0.0988216    0.00000       Uiso       1.00
      C409          C  0.2174700  0.9353927  0.0435176    0.00000       Uiso       1.00
      C410          C  0.2276541  0.9162634  0.0320694    0.00000       Uiso       1.00
      C411          C  0.1997885  0.9383753  0.0655822    0.00000       Uiso       1.00
      C412          C  0.1925739  0.9227456  0.0759000    0.00000       Uiso       1.00
      C413          C  0.2026127  0.9037036  0.0643748    0.00000       Uiso       1.00
      C414          C  0.2202901  0.9007195  0.0422654    0.00000       Uiso       1.00
      N169          N  0.1879755  0.9588152  0.0784939    0.00000       Uiso       1.00
      H425          H  0.1758329  0.9582285  0.0939079    0.00000       Uiso       1.00
      H426          H  0.1812124  0.9725697  0.0705245    0.00000       Uiso       1.00
      N170          N  0.1739429  0.9266027  0.0998140    0.00000       Uiso       1.00
      H427          H  0.1705887  0.9140768  0.1049357    0.00000       Uiso       1.00
      H428          H  0.1602011  0.9412001  0.1010256    0.00000       Uiso       1.00
      N171          N  0.2314932  0.8808504  0.0289062    0.00000       Uiso       1.00
      H429          H  0.2244656  0.8712429  0.0383779    0.00000       Uiso       1.00
      H430          H  0.2478643  0.8719028  0.0240308    0.00000       Uiso       1.00
      N172          N  0.2470632  0.9120021  0.0085619    0.00000       Uiso       1.00
      H431          H  0.2522899  0.8976654  0.0029235    0.00000       Uiso       1.00
      H432          H  0.2596279  0.9107870  0.0083700    0.00000       Uiso       1.00
      N173          N  0.1680853  0.0879834  0.9905357    0.00000       Uiso       1.00
      H433          H  0.1533368  0.1023199  0.9961742    0.00000       Uiso       1.00
      H434          H  0.1792428  0.0891986  0.9907278    0.00000       Uiso       1.00
      N174          N  0.1417080  0.1191351  0.9701914    0.00000       Uiso       1.00
      H435          H  0.1345445  0.1287427  0.9607196    0.00000       Uiso       1.00
      H436          H  0.1442558  0.1280827  0.9750670    0.00000       Uiso       1.00
      N175          N  0.2257435  0.0411711  0.9206032    0.00000       Uiso       1.00
      H437          H  0.2284283  0.0417579  0.9051891    0.00000       Uiso       1.00
      H438          H  0.2247656  0.0274165  0.9285724    0.00000       Uiso       1.00
      N176          N  0.2008182  0.0733835  0.8992832    0.00000       Uiso       1.00
      H439          H  0.1900598  0.0859094  0.8941615    0.00000       Uiso       1.00
      H440          H  0.2028857  0.0587861  0.8980713    0.00000       Uiso       1.00
      N177          N  0.3531474  0.9210480  0.9583711    0.00000       Uiso       1.00
      H441          H  0.3658767  0.9056339  0.9577844    0.00000       Uiso       1.00
      H442          H  0.3416210  0.9198790  0.9588752    0.00000       Uiso       1.00
      N178          N  0.3408728  0.9909803  0.9115586    0.00000       Uiso       1.00
      H443          H  0.3250324  0.9959345  0.9241248    0.00000       Uiso       1.00
      H444          H  0.3418357  0.9915099  0.8970675    0.00000       Uiso       1.00
      N179          N  0.3875945  0.9706358  0.8804067    0.00000       Uiso       1.00
      H445          H  0.4042298  0.9611641  0.8707991    0.00000       Uiso       1.00
      H446          H  0.3841551  0.9841809  0.8856865    0.00000       Uiso       1.00
      N180          N  0.3993925  0.8997279  0.9261587    0.00000       Uiso       1.00
      H447          H  0.4152726  0.8946061  0.9136328    0.00000       Uiso       1.00
      H448          H  0.3942266  0.8900741  0.9266850    0.00000       Uiso       1.00
      N181          N  0.2438702  0.0090057  0.0875389    0.00000       Uiso       1.00
      H449          H  0.2442821  0.0033673  0.1018755    0.00000       Uiso       1.00
      H450          H  0.2585718  0.9991209  0.0748165    0.00000       Uiso       1.00
      N182          N  0.2330249  0.0789379  0.0407264    0.00000       Uiso       1.00
      H451          H  0.2297534  0.0943520  0.0413131    0.00000       Uiso       1.00
      H452          H  0.2208335  0.0801069  0.0402224    0.00000       Uiso       1.00
      N183          N  0.2257377  0.1002580  0.0729387    0.00000       Uiso       1.00
      H453          H  0.2239702  0.1053797  0.0854646    0.00000       Uiso       1.00
      H454          H  0.2114443  0.1099118  0.0724125    0.00000       Uiso       1.00
      N184          N  0.2390958  0.0293501  0.1186906    0.00000       Uiso       1.00
      H455          H  0.2366517  0.0388218  0.1282982    0.00000       Uiso       1.00
      H456          H  0.2544813  0.0158049  0.1134108    0.00000       Uiso       1.00
      C415          C  0.2869755  0.9999791  0.9716583    0.00000       Uiso       1.00
      C416          C  0.2755994  0.9878108  0.9827322    0.00000       Uiso       1.00
      C417          C  0.2887051  0.9646291  0.9785770    0.00000       Uiso       1.00
      C418          C  0.3115698  0.9545317  0.9630755    0.00000       Uiso       1.00
      C419          C  0.3225521  0.9669478  0.9516026    0.00000       Uiso       1.00
      C420          C  0.3099138  0.9898191  0.9563525    0.00000       Uiso       1.00
      H457          H  0.3177943  0.9998895  0.9484642    0.00000       Uiso       1.00
      H458          H  0.3206044  0.9368981  0.9599390    0.00000       Uiso       1.00
      C421          C  0.2365283  0.0168099  0.9873661    0.00000       Uiso       1.00
      C422          C  0.2129839  0.0278837  0.9995343    0.00000       Uiso       1.00
      C423          C  0.2466045  0.0209653  0.9641844    0.00000       Uiso       1.00
      C424          C  0.2338370  0.0364668  0.9540871    0.00000       Uiso       1.00
      C425          C  0.2104387  0.0479395  0.9665031    0.00000       Uiso       1.00
      C426          C  0.2002057  0.0431895  0.9893744    0.00000       Uiso       1.00
      H459          H  0.1822548  0.0510776  0.9994447    0.00000       Uiso       1.00
      H460          H  0.2424362  0.0396035  0.9364535    0.00000       Uiso       1.00
      C427          C  0.2466010  0.0121751  0.0163653    0.00000       Uiso       1.00
      C428          C  0.2590714  0.0000068  0.0274393    0.00000       Uiso       1.00
      C429          C  0.2323695  0.0353568  0.0205205    0.00000       Uiso       1.00
      C430          C  0.2296356  0.0454542  0.0360220    0.00000       Uiso       1.00
      C431          C  0.2415610  0.0330381  0.0474949    0.00000       Uiso       1.00
      C432          C  0.2565438  0.0101667  0.0427451    0.00000       Uiso       1.00
      H461          H  0.2666063  0.0000964  0.0506334    0.00000       Uiso       1.00
      H462          H  0.2178999  0.0630878  0.0391585    0.00000       Uiso       1.00
      C433          C  0.2411627  0.9831760  0.0117312    0.00000       Uiso       1.00
      C434          C  0.2408605  0.9721025  0.9995624    0.00000       Uiso       1.00
      C435          C  0.2322118  0.9790212  0.0349130    0.00000       Uiso       1.00
      C436          C  0.2248484  0.9635198  0.0450104    0.00000       Uiso       1.00
      C437          C  0.2253395  0.9520465  0.0325942    0.00000       Uiso       1.00
      C438          C  0.2332286  0.9567959  0.0097227    0.00000       Uiso       1.00
      H463          H  0.2332365  0.9489081  0.9996518    0.00000       Uiso       1.00
      H464          H  0.2189499  0.9603837  0.0626442    0.00000       Uiso       1.00
      N185          N  0.2788460  0.9495391  0.9907048    0.00000       Uiso       1.00
      H465          H  0.2908700  0.9337257  0.9853828    0.00000       Uiso       1.00
      H466          H  0.2667587  0.9544901  0.9876202    0.00000       Uiso       1.00
      N186          N  0.2299425  0.9911495  0.0500030    0.00000       Uiso       1.00
      H467          H  0.2232401  0.9858279  0.0658164    0.00000       Uiso       1.00
      H468          H  0.2199648  0.0076756  0.0492104    0.00000       Uiso       1.00
      N187          N  0.2753461  0.9753838  0.0230573    0.00000       Uiso       1.00
      H469          H  0.2827867  0.9693150  0.0322319    0.00000       Uiso       1.00
      H470          H  0.2869935  0.9728999  0.0067356    0.00000       Uiso       1.00
      N188          N  0.2010916  0.0235006  0.0241573    0.00000       Uiso       1.00
      H471          H  0.1844765  0.0326750  0.0302260    0.00000       Uiso       1.00
      H472          H  0.2051017  0.0277037  0.0320647    0.00000       Uiso       1.00
      N189          N  0.2492089  0.9764842  0.9749397    0.00000       Uiso       1.00
      H473          H  0.2478373  0.9673095  0.9688708    0.00000       Uiso       1.00
      H474          H  0.2653295  0.9722812  0.9670327    0.00000       Uiso       1.00
      N190          N  0.2195484  0.0504467  0.0083927    0.00000       Uiso       1.00
      H475          H  0.2104370  0.0662600  0.0137147    0.00000       Uiso       1.00
      H476          H  0.2093275  0.0454956  0.0114774    0.00000       Uiso       1.00
      N191          N  0.2715535  0.0088378  0.9490946    0.00000       Uiso       1.00
      H477          H  0.2753429  0.0141599  0.9332812    0.00000       Uiso       1.00
      H478          H  0.2773095  0.9923116  0.9498866    0.00000       Uiso       1.00
      N192          N  0.2742455  0.0246021  0.9760404    0.00000       Uiso       1.00
      H479          H  0.2580542  0.0294858  0.9873399    0.00000       Uiso       1.00
      H480          H  0.2755512  0.0330955  0.9617119    0.00000       Uiso       1.00
      C439          C  0.6516950  0.6204517  0.3082162    0.00000       Uiso       1.00
      C440          C  0.6640791  0.6253511  0.2860259    0.00000       Uiso       1.00
      C441          C  0.6664533  0.6187132  0.2684004    0.00000       Uiso       1.00
      C442          C  0.6797375  0.6229314  0.2463369    0.00000       Uiso       1.00
      C443          C  0.6921493  0.6325865  0.2412603    0.00000       Uiso       1.00
      C444          C  0.6897885  0.6389072  0.2591911    0.00000       Uiso       1.00
      C445          C  0.6746013  0.6370820  0.2815129    0.00000       Uiso       1.00
        O1          O  0.6412129  0.6083145  0.3154598    0.00000       Uiso       1.00
      H481          H  0.7007957  0.6440431  0.2558283    0.00000       Uiso       1.00
      C446          C  0.7102967  0.7229906  0.2944335    0.00000       Uiso       1.00
      C447          C  0.7004951  0.7106121  0.2993425    0.00000       Uiso       1.00
      C448          C  0.6853004  0.7082516  0.3212495    0.00000       Uiso       1.00
      C449          C  0.6763533  0.6950769  0.3258784    0.00000       Uiso       1.00
      C450          C  0.6835126  0.6827745  0.3088962    0.00000       Uiso       1.00
      C451          C  0.6991222  0.6850749  0.2869950    0.00000       Uiso       1.00
      C452          C  0.7064044  0.7001512  0.2816429    0.00000       Uiso       1.00
        O2          O  0.7069384  0.7334830  0.3098882    0.00000       Uiso       1.00
      H482          H  0.6802787  0.7168365  0.3346983    0.00000       Uiso       1.00
      H483          H  0.6639699  0.6945224  0.3428478    0.00000       Uiso       1.00
      H484          H  0.7066578  0.6741337  0.2742055    0.00000       Uiso       1.00
      C453          C  0.7549089  0.6645138  0.1471875    0.00000       Uiso       1.00
      C454          C  0.7500385  0.6742990  0.1644449    0.00000       Uiso       1.00
      C455          C  0.7567707  0.6894843  0.1600807    0.00000       Uiso       1.00
      C456          C  0.7524825  0.6984215  0.1775566    0.00000       Uiso       1.00
      C457          C  0.7426623  0.6912617  0.1996805    0.00000       Uiso       1.00
      C458          C  0.7363405  0.6756708  0.2036779    0.00000       Uiso       1.00
      C459          C  0.7382489  0.6684047  0.1866778    0.00000       Uiso       1.00
        O3          O  0.7669509  0.6679847  0.1246152    0.00000       Uiso       1.00
      H485          H  0.7651915  0.6944923  0.1430635    0.00000       Uiso       1.00
      H486          H  0.7570910  0.7107911  0.1735028    0.00000       Uiso       1.00
      H487          H  0.7310826  0.6681144  0.2198583    0.00000       Uiso       1.00
      C460          C  0.7483880  0.6495077  0.1514214    0.00000       Uiso       1.00
      C461          C  0.7358226  0.6440533  0.1732460    0.00000       Uiso       1.00
      C462          C  0.7290958  0.6288325  0.1776734    0.00000       Uiso       1.00
      C463          C  0.7157337  0.6244186  0.1995993    0.00000       Uiso       1.00
      C464          C  0.7075453  0.6361770  0.2175821    0.00000       Uiso       1.00
      C465          C  0.7142295  0.6516580  0.2128053    0.00000       Uiso       1.00
      C466          C  0.7296621  0.6545033  0.1911285    0.00000       Uiso       1.00
        O4          O  0.7549902  0.6415930  0.1321079    0.00000       Uiso       1.00
      H488          H  0.7063763  0.6625238  0.2258064    0.00000       Uiso       1.00
      C467          C  0.7252790  0.7252669  0.2729145    0.00000       Uiso       1.00
      C468          C  0.7307292  0.7160117  0.2549102    0.00000       Uiso       1.00
      C469          C  0.7459416  0.7183691  0.2330137    0.00000       Uiso       1.00
      C470          C  0.7505141  0.7096938  0.2151740    0.00000       Uiso       1.00
      C471          C  0.7388803  0.6997516  0.2186906    0.00000       Uiso       1.00
      C472          C  0.7233295  0.6978931  0.2408379    0.00000       Uiso       1.00
      C473          C  0.7203444  0.7042483  0.2591549    0.00000       Uiso       1.00
        O5          O  0.7333241  0.7378998  0.2714858    0.00000       Uiso       1.00
      H489          H  0.7543907  0.7267911  0.2298639    0.00000       Uiso       1.00
      H490          H  0.7630744  0.7110210  0.1986888    0.00000       Uiso       1.00
      H491          H  0.7125344  0.6926440  0.2438221    0.00000       Uiso       1.00
      C474          C  0.6494734  0.6269726  0.3254611    0.00000       Uiso       1.00
      C475          C  0.6587346  0.6395148  0.3216647    0.00000       Uiso       1.00
      C476          C  0.6563882  0.6461836  0.3392389    0.00000       Uiso       1.00
      C477          C  0.6650665  0.6594441  0.3351567    0.00000       Uiso       1.00
      C478          C  0.6750103  0.6675600  0.3135906    0.00000       Uiso       1.00
      C479          C  0.6768668  0.6609631  0.2961788    0.00000       Uiso       1.00
      C480          C  0.6704984  0.6456421  0.2995423    0.00000       Uiso       1.00
        O6          O  0.6369166  0.6203211  0.3461665    0.00000       Uiso       1.00
      H492          H  0.6479664  0.6408689  0.3560919    0.00000       Uiso       1.00
      H493          H  0.6637379  0.6633551  0.3490516    0.00000       Uiso       1.00
      H494          H  0.6821165  0.6687499  0.2801298    0.00000       Uiso       1.00
        B1          B  0.6318811  0.6083986  0.3395125    0.00000       Uiso       1.00
        B2          B  0.7216055  0.7429518  0.2950943    0.00000       Uiso       1.00
        B3          B  0.7667768  0.6533707  0.1152634    0.00000       Uiso       1.00
      H495          H  0.6578904  0.6104012  0.2716758    0.00000       Uiso       1.00
      H496          H  0.6803244  0.6183147  0.2333876    0.00000       Uiso       1.00
      H497          H  0.7343211  0.6201851  0.1641783    0.00000       Uiso       1.00
      H498          H  0.7117464  0.6119011  0.2022104    0.00000       Uiso       1.00
      C481          C  0.5803741  0.3795337  0.6917760    0.00000       Uiso       1.00
      C482          C  0.5754672  0.3746344  0.7139663    0.00000       Uiso       1.00
      C483          C  0.5535781  0.3812723  0.7315918    0.00000       Uiso       1.00
      C484          C  0.5490169  0.3770541  0.7536553    0.00000       Uiso       1.00
      C485          C  0.5660073  0.3673990  0.7587318    0.00000       Uiso       1.00
      C486          C  0.5878980  0.3610782  0.7408011    0.00000       Uiso       1.00
      C487          C  0.5932074  0.3629034  0.7184793    0.00000       Uiso       1.00
        O7          O  0.5649984  0.3916709  0.6845324    0.00000       Uiso       1.00
      H499          H  0.6006783  0.3559423  0.7441639    0.00000       Uiso       1.00
      C488          C  0.7277319  0.2769949  0.7055587    0.00000       Uiso       1.00
      C489          C  0.7104608  0.2893734  0.7006497    0.00000       Uiso       1.00
      C490          C  0.7148126  0.2917339  0.6787426    0.00000       Uiso       1.00
      C491          C  0.6973198  0.3049085  0.6741138    0.00000       Uiso       1.00
      C492          C  0.6751944  0.3172110  0.6910960    0.00000       Uiso       1.00
      C493          C  0.6712033  0.3149105  0.7129973    0.00000       Uiso       1.00
      C494          C  0.6882098  0.2998343  0.7183492    0.00000       Uiso       1.00
        O8          O  0.7503209  0.2665024  0.6901040    0.00000       Uiso       1.00
      H500          H  0.7318246  0.2831490  0.6652939    0.00000       Uiso       1.00
      H501          H  0.7013513  0.3054630  0.6571444    0.00000       Uiso       1.00
      H502          H  0.6550081  0.3258518  0.7257867    0.00000       Uiso       1.00
      C495          C  0.5666213  0.3354716  0.8528047    0.00000       Uiso       1.00
      C496          C  0.5887936  0.3256864  0.8355473    0.00000       Uiso       1.00
      C497          C  0.6063467  0.3105012  0.8399115    0.00000       Uiso       1.00
      C498          C  0.6284717  0.3015639  0.8224356    0.00000       Uiso       1.00
      C499          C  0.6336156  0.3087237  0.8003117    0.00000       Uiso       1.00
      C500          C  0.6157004  0.3243146  0.7963143    0.00000       Uiso       1.00
      C501          C  0.5933426  0.3315808  0.8133144    0.00000       Uiso       1.00
        O9          O  0.5595619  0.3320008  0.8753770    0.00000       Uiso       1.00
      H503          H  0.6027585  0.3054931  0.8569286    0.00000       Uiso       1.00
      H504          H  0.6413961  0.2891943  0.8264893    0.00000       Uiso       1.00
      H505          H  0.6190664  0.3318712  0.7801338    0.00000       Uiso       1.00
      C502          C  0.5493282  0.3504778  0.8485708    0.00000       Uiso       1.00
      C503          C  0.5531330  0.3559321  0.8267462    0.00000       Uiso       1.00
      C504          C  0.5356128  0.3711530  0.8223188    0.00000       Uiso       1.00
      C505          C  0.5397627  0.3755669  0.8003929    0.00000       Uiso       1.00
      C506          C  0.5613156  0.3638085  0.7824101    0.00000       Uiso       1.00
      C507          C  0.5787040  0.3483275  0.7871869    0.00000       Uiso       1.00
      C508          C  0.5753050  0.3454822  0.8088636    0.00000       Uiso       1.00
       O10          O  0.5287023  0.3583924  0.8678843    0.00000       Uiso       1.00
      H506          H  0.5947177  0.3374616  0.7741857    0.00000       Uiso       1.00
      C509          C  0.7234716  0.2747186  0.7270777    0.00000       Uiso       1.00
      C510          C  0.7016622  0.2839738  0.7450820    0.00000       Uiso       1.00
      C511          C  0.6973356  0.2816163  0.7669785    0.00000       Uiso       1.00
      C512          C  0.6753932  0.2902916  0.7848182    0.00000       Uiso       1.00
      C513          C  0.6573337  0.3002338  0.7813016    0.00000       Uiso       1.00
      C514          C  0.6620718  0.3020923  0.7591543    0.00000       Uiso       1.00
      C515          C  0.6837587  0.2957371  0.7408373    0.00000       Uiso       1.00
       O11          O  0.7427210  0.2620857  0.7285063    0.00000       Uiso       1.00
      H507          H  0.7110569  0.2731943  0.7701283    0.00000       Uiso       1.00
      H508          H  0.6727954  0.2889645  0.8013034    0.00000       Uiso       1.00
      H509          H  0.6490117  0.3073415  0.7561701    0.00000       Uiso       1.00
      C516          C  0.6019182  0.3730129  0.6745311    0.00000       Uiso       1.00
      C517          C  0.6199253  0.3604707  0.6783274    0.00000       Uiso       1.00
      C518          C  0.6418219  0.3538018  0.6607533    0.00000       Uiso       1.00
      C519          C  0.6596785  0.3405414  0.6648355    0.00000       Uiso       1.00
      C520          C  0.6561722  0.3324254  0.6864016    0.00000       Uiso       1.00
      C521          C  0.6340199  0.3390223  0.7038133    0.00000       Uiso       1.00
      C522          C  0.6156940  0.3543434  0.7004499    0.00000       Uiso       1.00
       O12          O  0.6034153  0.3796644  0.6538258    0.00000       Uiso       1.00
      H510          H  0.6449385  0.3591165  0.6439002    0.00000       Uiso       1.00
      H511          H  0.6761557  0.3366304  0.6509405    0.00000       Uiso       1.00
      H512          H  0.6310074  0.3312355  0.7198624    0.00000       Uiso       1.00
        B4          B  0.5798033  0.3915869  0.6604797    0.00000       Uiso       1.00
        B5          B  0.7596629  0.2570336  0.7048978    0.00000       Uiso       1.00
        B6          B  0.5354221  0.3466147  0.8847288    0.00000       Uiso       1.00
      H513          H  0.5399785  0.3895843  0.7283164    0.00000       Uiso       1.00
      H514          H  0.5320379  0.3816707  0.7666047    0.00000       Uiso       1.00
      H515          H  0.5186957  0.3798003  0.8358138    0.00000       Uiso       1.00
      H516          H  0.5258691  0.3880844  0.7977818    0.00000       Uiso       1.00
      C523          C  0.5957196  0.1472330  0.3375239    0.00000       Uiso       1.00
      C524          C  0.5818132  0.1644989  0.3292490    0.00000       Uiso       1.00
      C525          C  0.5752211  0.1601778  0.3182726    0.00000       Uiso       1.00
      C526          C  0.5621804  0.1776644  0.3091860    0.00000       Uiso       1.00
      C527          C  0.5566016  0.1997251  0.3096583    0.00000       Uiso       1.00
      C528          C  0.5636356  0.2036946  0.3205439    0.00000       Uiso       1.00
      C529          C  0.5746707  0.1867180  0.3318465    0.00000       Uiso       1.00
       O13          O  0.6046481  0.1246679  0.3357509    0.00000       Uiso       1.00
      H517          H  0.5801530  0.1431913  0.3168964    0.00000       Uiso       1.00
      H518          H  0.5567205  0.1736842  0.3016716    0.00000       Uiso       1.00
      H519          H  0.5616951  0.2198277  0.3191197    0.00000       Uiso       1.00
      C530          C  0.5374197  0.3082281  0.3820224    0.00000       Uiso       1.00
      C531          C  0.5457046  0.2860504  0.3786468    0.00000       Uiso       1.00
      C532          C  0.5566889  0.2684870  0.3895493    0.00000       Uiso       1.00
      C533          C  0.5657852  0.2463639  0.3850879    0.00000       Uiso       1.00
      C534          C  0.5653150  0.2412569  0.3686014    0.00000       Uiso       1.00
      C535          C  0.5544215  0.2591715  0.3576089    0.00000       Uiso       1.00
      C536          C  0.5431091  0.2815041  0.3635650    0.00000       Uiso       1.00
       O14          O  0.5391893  0.3153844  0.3956662    0.00000       Uiso       1.00
      H520          H  0.5580634  0.2720443  0.4016072    0.00000       Uiso       1.00
      H521          H  0.5733055  0.2333930  0.3945199    0.00000       Uiso       1.00
      H522          H  0.5558473  0.2558071  0.3434140    0.00000       Uiso       1.00
      C537          C  0.4929274  0.2944067  0.2792948    0.00000       Uiso       1.00
      C538          C  0.4963008  0.2993178  0.2931934    0.00000       Uiso       1.00
      C539          C  0.4853884  0.3211999  0.2997874    0.00000       Uiso       1.00
      C540          C  0.4898480  0.3258366  0.3128203    0.00000       Uiso       1.00
      C541          C  0.5063421  0.3088873  0.3183894    0.00000       Uiso       1.00
      C542          C  0.5173445  0.2870063  0.3113535    0.00000       Uiso       1.00
      C543          C  0.5113904  0.2816473  0.3003261    0.00000       Uiso       1.00
       O15          O  0.4792767  0.3098139  0.2703764    0.00000       Uiso       1.00
      H523          H  0.4733242  0.3346274  0.2948628    0.00000       Uiso       1.00
      H524          H  0.4804085  0.3427846  0.3182819    0.00000       Uiso       1.00
      H525          H  0.5315452  0.2742436  0.3132868    0.00000       Uiso       1.00
      C544          C  0.5040166  0.2729540  0.2724433    0.00000       Uiso       1.00
      C545          C  0.5180976  0.2549472  0.2801685    0.00000       Uiso       1.00
      C546          C  0.5290022  0.2330565  0.2736021    0.00000       Uiso       1.00
      C547          C  0.5421343  0.2152038  0.2824134    0.00000       Uiso       1.00
      C548          C  0.5435398  0.2187232  0.2990303    0.00000       Uiso       1.00
      C549          C  0.5322230  0.2408660  0.3056103    0.00000       Uiso       1.00
      C550          C  0.5209299  0.2591755  0.2952323    0.00000       Uiso       1.00
       O16          O  0.4989548  0.2715638  0.2582506    0.00000       Uiso       1.00
      H526          H  0.5273473  0.2299174  0.2615402    0.00000       Uiso       1.00
      H527          H  0.5509534  0.1987021  0.2762284    0.00000       Uiso       1.00
      H528          H  0.5310457  0.2438615  0.3198155    0.00000       Uiso       1.00
      C551          C  0.5270417  0.3254435  0.3709428    0.00000       Uiso       1.00
      C552          C  0.5231014  0.3216488  0.3568698    0.00000       Uiso       1.00
      C553          C  0.5121008  0.3392014  0.3459750    0.00000       Uiso       1.00
      C554          C  0.5073665  0.3351147  0.3328505    0.00000       Uiso       1.00
      C555          C  0.5122924  0.3135759  0.3314432    0.00000       Uiso       1.00
      C556          C  0.5231331  0.2961695  0.3427503    0.00000       Uiso       1.00
      C557          C  0.5301626  0.2995289  0.3540355    0.00000       Uiso       1.00
       O17          O  0.5205917  0.3460828  0.3760051    0.00000       Uiso       1.00
      H529          H  0.5073062  0.3560544  0.3476318    0.00000       Uiso       1.00
      H530          H  0.4996725  0.3489830  0.3240390    0.00000       Uiso       1.00
      H531          H  0.5249529  0.2801466  0.3439263    0.00000       Uiso       1.00
      C558          C  0.6025696  0.1514734  0.3478942    0.00000       Uiso       1.00
      C559          C  0.5948347  0.1732761  0.3518363    0.00000       Uiso       1.00
      C560          C  0.6013995  0.1776173  0.3628289    0.00000       Uiso       1.00
      C561          C  0.5925785  0.1995568  0.3675651    0.00000       Uiso       1.00
      C562          C  0.5759534  0.2175717  0.3626491    0.00000       Uiso       1.00
      C563          C  0.5693751  0.2128320  0.3518164    0.00000       Uiso       1.00
      C564          C  0.5797628  0.1911656  0.3447852    0.00000       Uiso       1.00
       O18          O  0.6167712  0.1322249  0.3543348    0.00000       Uiso       1.00
      H532          H  0.6134676  0.1639064  0.3676161    0.00000       Uiso       1.00
      H533          H  0.5987624  0.2021939  0.3752526    0.00000       Uiso       1.00
      H534          H  0.5551640  0.2258535  0.3500039    0.00000       Uiso       1.00
        B7          B  0.6179782  0.1153004  0.3465123    0.00000       Uiso       1.00
        B8          B  0.5284171  0.3394710  0.3917202    0.00000       Uiso       1.00
        B9          B  0.4832291  0.2950973  0.2570509    0.00000       Uiso       1.00
      C565          C  0.0804875  0.8527525  0.6624683    0.00000       Uiso       1.00
      C566          C  0.0755721  0.8354866  0.6707432    0.00000       Uiso       1.00
      C567          C  0.0536824  0.8398077  0.6817197    0.00000       Uiso       1.00
      C568          C  0.0490419  0.8223211  0.6908062    0.00000       Uiso       1.00
      C569          C  0.0659962  0.8002604  0.6903338    0.00000       Uiso       1.00
      C570          C  0.0878852  0.7962908  0.6794483    0.00000       Uiso       1.00
      C571          C  0.0932463  0.8132674  0.6681457    0.00000       Uiso       1.00
       O19          O  0.0650780  0.8753176  0.6642413    0.00000       Uiso       1.00
      H535          H  0.0402518  0.8567941  0.6830958    0.00000       Uiso       1.00
      H536          H  0.0320873  0.8263013  0.6983207    0.00000       Uiso       1.00
      H537          H  0.1006536  0.7801577  0.6808725    0.00000       Uiso       1.00
      C572          C  0.2276812  0.6917574  0.6179698    0.00000       Uiso       1.00
      C573          C  0.2104129  0.7139350  0.6213455    0.00000       Uiso       1.00
      C574          C  0.2147363  0.7314985  0.6104428    0.00000       Uiso       1.00
      C575          C  0.1972481  0.7536216  0.6149043    0.00000       Uiso       1.00
      C576          C  0.1751844  0.7587286  0.6313908    0.00000       Uiso       1.00
      C577          C  0.1712129  0.7408140  0.6423833    0.00000       Uiso       1.00
      C578          C  0.1881893  0.7184814  0.6364272    0.00000       Uiso       1.00
       O20          O  0.2502510  0.6846011  0.6043261    0.00000       Uiso       1.00
      H538          H  0.2317261  0.7279412  0.5983850    0.00000       Uiso       1.00
      H539          H  0.2012296  0.7665924  0.6054723    0.00000       Uiso       1.00
      H540          H  0.1550795  0.7441784  0.6565782    0.00000       Uiso       1.00
      C579          C  0.0666400  0.7055787  0.7206973    0.00000       Uiso       1.00
      C580          C  0.0888231  0.7006676  0.7067988    0.00000       Uiso       1.00
      C581          C  0.1063868  0.6787856  0.7002048    0.00000       Uiso       1.00
      C582          C  0.1285159  0.6741489  0.6871719    0.00000       Uiso       1.00
      C583          C  0.1336299  0.6910981  0.6816028    0.00000       Uiso       1.00
      C584          C  0.1157153  0.7129792  0.6886387    0.00000       Uiso       1.00
      C585          C  0.0933749  0.7183381  0.6996661    0.00000       Uiso       1.00
       O21          O  0.0594780  0.6901716  0.7296157    0.00000       Uiso       1.00
      H541          H  0.1028255  0.6653581  0.7051294    0.00000       Uiso       1.00
      H542          H  0.1414862  0.6572008  0.6817102    0.00000       Uiso       1.00
      H543          H  0.1190867  0.7257419  0.6867053    0.00000       Uiso       1.00
      C586          C  0.0494249  0.7270315  0.7275489    0.00000       Uiso       1.00
      C587          C  0.0532244  0.7450383  0.7198237    0.00000       Uiso       1.00
      C588          C  0.0356719  0.7669289  0.7263901    0.00000       Uiso       1.00
      C589          C  0.0397626  0.7847816  0.7175788    0.00000       Uiso       1.00
      C590          C  0.0613043  0.7812622  0.7009619    0.00000       Uiso       1.00
      C591          C  0.0787104  0.7591195  0.6943819    0.00000       Uiso       1.00
      C592          C  0.0753488  0.7408099  0.7047599    0.00000       Uiso       1.00
       O22          O  0.0287803  0.7284217  0.7417416    0.00000       Uiso       1.00
      H544          H  0.0188159  0.7700681  0.7384520    0.00000       Uiso       1.00
      H545          H  0.0258950  0.8012833  0.7237638    0.00000       Uiso       1.00
      H546          H  0.0947337  0.7561239  0.6801767    0.00000       Uiso       1.00
      C593          C  0.2234391  0.6745420  0.6290494    0.00000       Uiso       1.00
      C594          C  0.2016312  0.6783367  0.6431224    0.00000       Uiso       1.00
      C595          C  0.1972884  0.6607840  0.6540171    0.00000       Uiso       1.00
      C596          C  0.1753428  0.6648707  0.6671417    0.00000       Uiso       1.00
      C597          C  0.1573225  0.6864097  0.6685491    0.00000       Uiso       1.00
      C598          C  0.1620639  0.7038160  0.6572419    0.00000       Uiso       1.00
      C599          C  0.1837381  0.7004565  0.6459567    0.00000       Uiso       1.00
       O23          O  0.2426907  0.6539026  0.6239871    0.00000       Uiso       1.00
      H547          H  0.2110035  0.6439310  0.6523603    0.00000       Uiso       1.00
      H548          H  0.1727057  0.6510023  0.6759532    0.00000       Uiso       1.00
      H549          H  0.1490369  0.7198388  0.6560659    0.00000       Uiso       1.00
      C600          C  0.1019483  0.8485121  0.6520979    0.00000       Uiso       1.00
      C601          C  0.1199582  0.8267093  0.6481559    0.00000       Uiso       1.00
      C602          C  0.1418568  0.8223682  0.6371633    0.00000       Uiso       1.00
      C603          C  0.1597114  0.8004286  0.6324271    0.00000       Uiso       1.00
      C604          C  0.1561853  0.7824137  0.6373431    0.00000       Uiso       1.00
      C605          C  0.1340345  0.7871535  0.6481758    0.00000       Uiso       1.00
      C606          C  0.1157245  0.8088198  0.6552070    0.00000       Uiso       1.00
       O24          O  0.1033419  0.8677605  0.6456574    0.00000       Uiso       1.00
      H550          H  0.1450011  0.8360791  0.6323761    0.00000       Uiso       1.00
      H551          H  0.1762199  0.7977915  0.6247396    0.00000       Uiso       1.00
      H552          H  0.1310324  0.7741320  0.6499883    0.00000       Uiso       1.00
       B10          B  0.0798019  0.8846850  0.6534799    0.00000       Uiso       1.00
       B11          B  0.2596194  0.6605145  0.6082719    0.00000       Uiso       1.00
       B12          B  0.0353884  0.7048881  0.7429413    0.00000       Uiso       1.00
      C607          C  0.9952143  0.3530097  0.8347803    0.00000       Uiso       1.00
      C608          C  0.0001016  0.3357361  0.8249685    0.00000       Uiso       1.00
      C609          C  0.9934459  0.3400077  0.8097289    0.00000       Uiso       1.00
      C610          C  0.9976522  0.3225152  0.8009439    0.00000       Uiso       1.00
      C611          C  0.0073128  0.3004506  0.8082615    0.00000       Uiso       1.00
      C612          C  0.0136513  0.2964826  0.8238200    0.00000       Uiso       1.00
      C613          C  0.0118385  0.3134851  0.8309598    0.00000       Uiso       1.00
       O25          O  0.9830735  0.3756257  0.8315588    0.00000       Uiso       1.00
      H553          H  0.0187915  0.2803410  0.8314514    0.00000       Uiso       1.00
      C614          C  0.0978130  0.1918754  0.8794612    0.00000       Uiso       1.00
      C615          C  0.0854290  0.2140534  0.8745862    0.00000       Uiso       1.00
      C616          C  0.0830802  0.2315988  0.8813045    0.00000       Uiso       1.00
      C617          C  0.0698998  0.2537184  0.8770040    0.00000       Uiso       1.00
      C618          C  0.0575798  0.2588691  0.8671933    0.00000       Uiso       1.00
      C619          C  0.0598687  0.2409689  0.8608954    0.00000       Uiso       1.00
      C620          C  0.0749502  0.2186127  0.8628080    0.00000       Uiso       1.00
       O26          O  0.1083225  0.1847343  0.8915443    0.00000       Uiso       1.00
      H554          H  0.0916787  0.2280295  0.8897224    0.00000       Uiso       1.00
      H555          H  0.0693547  0.2666486  0.8815940    0.00000       Uiso       1.00
      H556          H  0.0489145  0.2443803  0.8556502    0.00000       Uiso       1.00
      C621          C  0.0391984  0.2058057  0.7769056    0.00000       Uiso       1.00
      C622          C  0.0490012  0.2008832  0.7892806    0.00000       Uiso       1.00
      C623          C  0.0641923  0.1789678  0.7916308    0.00000       Uiso       1.00
      C624          C  0.0731473  0.1743109  0.8048066    0.00000       Uiso       1.00
      C625          C  0.0659997  0.1912811  0.8171155    0.00000       Uiso       1.00
      C626          C  0.0504025  0.2131919  0.8148090    0.00000       Uiso       1.00
      C627          C  0.0431188  0.2185571  0.7997298    0.00000       Uiso       1.00
       O27          O  0.0426560  0.1903030  0.7663715    0.00000       Uiso       1.00
      H557          H  0.0691912  0.1655465  0.7830301    0.00000       Uiso       1.00
      H558          H  0.0855209  0.1573346  0.8053479    0.00000       Uiso       1.00
      H559          H  0.0428548  0.2259991  0.8257357    0.00000       Uiso       1.00
      C628          C  0.0241864  0.2273309  0.7746360    0.00000       Uiso       1.00
      C629          C  0.0187435  0.2453408  0.7839016    0.00000       Uiso       1.00
      C630          C  0.0035168  0.2672864  0.7816199    0.00000       Uiso       1.00
      C631          C  0.9991145  0.2850527  0.7901897    0.00000       Uiso       1.00
      C632          C  0.0108907  0.2814746  0.7999729    0.00000       Uiso       1.00
      C633          C  0.0263773  0.2593115  0.8018627    0.00000       Uiso       1.00
      C634          C  0.0292113  0.2410434  0.7956118    0.00000       Uiso       1.00
       O28          O  0.0162539  0.2286519  0.7619346    0.00000       Uiso       1.00
      H560          H  0.0372561  0.2562932  0.8070020    0.00000       Uiso       1.00
      C635          C  0.1000778  0.1746264  0.8729187    0.00000       Uiso       1.00
      C636          C  0.0908047  0.1784395  0.8603760    0.00000       Uiso       1.00
      C637          C  0.0931505  0.1608793  0.8536860    0.00000       Uiso       1.00
      C638          C  0.0844574  0.1649901  0.8404305    0.00000       Uiso       1.00
      C639          C  0.0745087  0.1865646  0.8323309    0.00000       Uiso       1.00
      C640          C  0.0726623  0.2039640  0.8389332    0.00000       Uiso       1.00
      C641          C  0.0790353  0.2005857  0.8542538    0.00000       Uiso       1.00
       O29          O  0.1127186  0.1539491  0.8795173    0.00000       Uiso       1.00
      H561          H  0.1015773  0.1440097  0.8589716    0.00000       Uiso       1.00
      H562          H  0.0857760  0.1511101  0.8365005    0.00000       Uiso       1.00
      H563          H  0.0674086  0.2200069  0.8311352    0.00000       Uiso       1.00
      C642          C  0.0017526  0.3487028  0.8497919    0.00000       Uiso       1.00
      C643          C  0.0143011  0.3269011  0.8552390    0.00000       Uiso       1.00
      C644          C  0.0209876  0.3225708  0.8704551    0.00000       Uiso       1.00
      C645          C  0.0342543  0.3006339  0.8750333    0.00000       Uiso       1.00
      C646          C  0.0423590  0.2825837  0.8634046    0.00000       Uiso       1.00
      C647          C  0.0357444  0.2873320  0.8478612    0.00000       Uiso       1.00
      C648          C  0.0204167  0.3090198  0.8448743    0.00000       Uiso       1.00
       O30          O  0.9951109  0.3679018  0.8579485    0.00000       Uiso       1.00
      H564          H  0.0156818  0.3362997  0.8788911    0.00000       Uiso       1.00
      H565          H  0.0381788  0.2980453  0.8875912    0.00000       Uiso       1.00
      H566          H  0.0435227  0.2743026  0.8370575    0.00000       Uiso       1.00
       B13          B  0.9831749  0.3848628  0.8462771    0.00000       Uiso       1.00
       B14          B  0.1177888  0.1606051  0.8914025    0.00000       Uiso       1.00
       B15          B  0.0280270  0.2050951  0.7568631    0.00000       Uiso       1.00
      H567          H  0.9851294  0.3568812  0.8044550    0.00000       Uiso       1.00
      H568          H  0.9930223  0.3265507  0.7885907    0.00000       Uiso       1.00
      H569          H  0.9948558  0.2707146  0.7733591    0.00000       Uiso       1.00
      H570          H  0.9865918  0.3015563  0.7888271    0.00000       Uiso       1.00
      C649          C  0.5217850  0.8821906  0.8085730    0.00000       Uiso       1.00
      C650          C  0.5390450  0.8788346  0.7863923    0.00000       Uiso       1.00
      C651          C  0.5347092  0.8897529  0.7688384    0.00000       Uiso       1.00
      C652          C  0.5521896  0.8853108  0.7467114    0.00000       Uiso       1.00
      C653          C  0.5742582  0.8688287  0.7415900    0.00000       Uiso       1.00
      C654          C  0.5782424  0.8578203  0.7594949    0.00000       Uiso       1.00
      C655          C  0.5612732  0.8637569  0.7818328    0.00000       Uiso       1.00
       O31          O  0.4992122  0.8958279  0.8157415    0.00000       Uiso       1.00
      H571          H  0.5177161  0.9018078  0.7724056    0.00000       Uiso       1.00
      H572          H  0.5481985  0.8947544  0.7337487    0.00000       Uiso       1.00
      H573          H  0.5943806  0.8436284  0.7561180    0.00000       Uiso       1.00
      C656          C  0.6828659  0.7794755  0.7946597    0.00000       Uiso       1.00
      C657          C  0.6606789  0.7933697  0.7995830    0.00000       Uiso       1.00
      C658          C  0.6431224  0.7999440  0.8214708    0.00000       Uiso       1.00
      C659          C  0.6209893  0.8129728  0.8261194    0.00000       Uiso       1.00
      C660          C  0.6158651  0.8185573  0.8091751    0.00000       Uiso       1.00
      C661          C  0.6337731  0.8115411  0.7872877    0.00000       Uiso       1.00
      C662          C  0.6561159  0.8005182  0.7819189    0.00000       Uiso       1.00
       O32          O  0.6900383  0.7705434  0.8100591    0.00000       Uiso       1.00
      H574          H  0.6466926  0.7950068  0.8348935    0.00000       Uiso       1.00
      H575          H  0.6080245  0.8184190  0.8430724    0.00000       Uiso       1.00
      H576          H  0.6303952  0.8134860  0.7745267    0.00000       Uiso       1.00
      C663          C  0.6689267  0.8378348  0.6475380    0.00000       Uiso       1.00
      C664          C  0.6738539  0.8295441  0.6647964    0.00000       Uiso       1.00
      C665          C  0.6957466  0.8185716  0.6604652    0.00000       Uiso       1.00
      C666          C  0.7003991  0.8094695  0.6779437    0.00000       Uiso       1.00
      C667          C  0.6834546  0.8099221  0.7000049    0.00000       Uiso       1.00
      C668          C  0.6615624  0.8208040  0.7039843    0.00000       Uiso       1.00
      C669          C  0.6561885  0.8321218  0.6870179    0.00000       Uiso       1.00
       O33          O  0.6843265  0.8360824  0.6249713    0.00000       Uiso       1.00
      H577          H  0.7091703  0.8172104  0.6434776    0.00000       Uiso       1.00
      H578          H  0.7173555  0.8019584  0.6739568    0.00000       Uiso       1.00
      H579          H  0.6488020  0.8193651  0.7201161    0.00000       Uiso       1.00
      C670          C  0.6474630  0.8482015  0.6517881    0.00000       Uiso       1.00
      C671          C  0.6294615  0.8521238  0.6735943    0.00000       Uiso       1.00
      C672          C  0.6075600  0.8631128  0.6779453    0.00000       Uiso       1.00
      C673          C  0.5897130  0.8678294  0.6998890    0.00000       Uiso       1.00
      C674          C  0.5932494  0.8628972  0.7178995    0.00000       Uiso       1.00
      C675          C  0.6154031  0.8520682  0.7131501    0.00000       Uiso       1.00
      C676          C  0.6337064  0.8450565  0.6914774    0.00000       Uiso       1.00
       O34          O  0.6460573  0.8546597  0.6325457    0.00000       Uiso       1.00
      H580          H  0.6044079  0.8679122  0.6642382    0.00000       Uiso       1.00
      H581          H  0.5732024  0.8755148  0.7025327    0.00000       Uiso       1.00
      H582          H  0.6184121  0.8502437  0.7261699    0.00000       Uiso       1.00
      C677          C  0.7000744  0.7726430  0.7732010    0.00000       Uiso       1.00
      C678          C  0.6962637  0.7803841  0.7552010    0.00000       Uiso       1.00
      C679          C  0.7138095  0.7738370  0.7333046    0.00000       Uiso       1.00
      C680          C  0.7097072  0.7826638  0.7154595    0.00000       Uiso       1.00
      C681          C  0.6881596  0.7992775  0.7189935    0.00000       Uiso       1.00
      C682          C  0.6707604  0.8058381  0.7411422    0.00000       Uiso       1.00
      C683          C  0.6741346  0.7954443  0.7594426    0.00000       Uiso       1.00
       O35          O  0.7207246  0.7584514  0.7717984    0.00000       Uiso       1.00
      H583          H  0.7306694  0.7617780  0.7301552    0.00000       Uiso       1.00
      H584          H  0.7235703  0.7764934  0.6989524    0.00000       Uiso       1.00
      H585          H  0.6547322  0.8200407  0.7441501    0.00000       Uiso       1.00
      C684          C  0.5260396  0.8710955  0.8257787    0.00000       Uiso       1.00
      C685          C  0.5478522  0.8570259  0.8219715    0.00000       Uiso       1.00
      C686          C  0.5522080  0.8461151  0.8395143    0.00000       Uiso       1.00
      C687          C  0.5741577  0.8329944  0.8354156    0.00000       Uiso       1.00
      C688          C  0.5921687  0.8316068  0.8138755    0.00000       Uiso       1.00
      C689          C  0.5874143  0.8429296  0.7964795    0.00000       Uiso       1.00
      C690          C  0.5657366  0.8542116  0.7998492    0.00000       Uiso       1.00
       O36          O  0.5067946  0.8761395  0.8464224    0.00000       Uiso       1.00
      H586          H  0.5385007  0.8477557  0.8563689    0.00000       Uiso       1.00
      H587          H  0.5768056  0.8241701  0.8492756    0.00000       Uiso       1.00
      H588          H  0.6004338  0.8441200  0.7804577    0.00000       Uiso       1.00
       B16          B  0.4898561  0.8918605  0.8398246    0.00000       Uiso       1.00
       B17          B  0.7141273  0.7572309  0.7953308    0.00000       Uiso       1.00
       B18          B  0.6695933  0.8468524  0.6156138    0.00000       Uiso       1.00
      C691          C  0.0223081  0.7947809  0.2231086    0.00000       Uiso       1.00
      C692          C  0.0395882  0.7997011  0.2107224    0.00000       Uiso       1.00
      C693          C  0.0353204  0.8215895  0.2083512    0.00000       Uiso       1.00
      C694          C  0.0528188  0.8261644  0.1950651    0.00000       Uiso       1.00
      C695          C  0.0748845  0.8091894  0.1826490    0.00000       Uiso       1.00
      C696          C  0.0788484  0.7872993  0.1850069    0.00000       Uiso       1.00
      C697          C  0.0618419  0.7819757  0.2001949    0.00000       Uiso       1.00
       O37          O  0.9996880  0.8101419  0.2335961    0.00000       Uiso       1.00
      H589          H  0.0949888  0.7745312  0.1739974    0.00000       Uiso       1.00
      C698          C  0.1834683  0.6475214  0.1644611    0.00000       Uiso       1.00
      C699          C  0.1612870  0.6647784  0.1742683    0.00000       Uiso       1.00
      C700          C  0.1437375  0.6604118  0.1894640    0.00000       Uiso       1.00
      C701          C  0.1216139  0.6778908  0.1984171    0.00000       Uiso       1.00
      C702          C  0.1164622  0.7000170  0.1912631    0.00000       Uiso       1.00
      C703          C  0.1343662  0.7040231  0.1756526    0.00000       Uiso       1.00
      C704          C  0.1567283  0.6870298  0.1683636    0.00000       Uiso       1.00
       O38          O  0.1906088  0.6249342  0.1678147    0.00000       Uiso       1.00
      H590          H  0.1473069  0.6433991  0.1944818    0.00000       Uiso       1.00
      H591          H  0.1086814  0.6738479  0.2108006    0.00000       Uiso       1.00
      H592          H  0.1309523  0.7202201  0.1681219    0.00000       Uiso       1.00
      C705          C  0.1695577  0.8086457  0.1198752    0.00000       Uiso       1.00
      C706          C  0.1744791  0.7864735  0.1247412    0.00000       Uiso       1.00
      C707          C  0.1964002  0.7689331  0.1180023    0.00000       Uiso       1.00
      C708          C  0.2010552  0.7468083  0.1222864    0.00000       Uiso       1.00
      C709          C  0.1840764  0.7416525  0.1321099    0.00000       Uiso       1.00
      C710          C  0.1621596  0.7595550  0.1384386    0.00000       Uiso       1.00
      C711          C  0.1567978  0.7819113  0.1365333    0.00000       Uiso       1.00
       O39          O  0.1850667  0.8157174  0.1078317    0.00000       Uiso       1.00
      H593          H  0.2098275  0.7725312  0.1095792    0.00000       Uiso       1.00
      H594          H  0.2180368  0.7338936  0.1176724    0.00000       Uiso       1.00
      H595          H  0.1493442  0.7561809  0.1436998    0.00000       Uiso       1.00
      C712          C  0.1480269  0.8259262  0.1264028    0.00000       Uiso       1.00
      C713          C  0.1300103  0.8221077  0.1389706    0.00000       Uiso       1.00
      C714          C  0.1080589  0.8396150  0.1457042    0.00000       Uiso       1.00
      C715          C  0.0902868  0.8354514  0.1590682    0.00000       Uiso       1.00
      C716          C  0.0938658  0.8138965  0.1672514    0.00000       Uiso       1.00
      C717          C  0.1160350  0.7965209  0.1605602    0.00000       Uiso       1.00
      C718          C  0.1343072  0.7999349  0.1451264    0.00000       Uiso       1.00
       O40          O  0.1467079  0.8465545  0.1198041    0.00000       Uiso       1.00
      H596          H  0.1190559  0.7805051  0.1684086    0.00000       Uiso       1.00
      C719          C  0.2007213  0.6517962  0.1494778    0.00000       Uiso       1.00
      C720          C  0.1969097  0.6736063  0.1440318    0.00000       Uiso       1.00
      C721          C  0.2144739  0.6779476  0.1288183    0.00000       Uiso       1.00
      C722          C  0.2103651  0.6998902  0.1242497    0.00000       Uiso       1.00
      C723          C  0.1887898  0.7179348  0.1358880    0.00000       Uiso       1.00
      C724          C  0.1713867  0.7131821  0.1514396    0.00000       Uiso       1.00
      C725          C  0.1747609  0.6914952  0.1544218    0.00000       Uiso       1.00
       O41          O  0.2214013  0.6325597  0.1414271    0.00000       Uiso       1.00
      H597          H  0.2313449  0.6642376  0.1203655    0.00000       Uiso       1.00
      H598          H  0.2242475  0.7024999  0.1116888    0.00000       Uiso       1.00
      H599          H  0.1553448  0.7262301  0.1622371    0.00000       Uiso       1.00
      C726          C  0.0266112  0.7732378  0.2253274    0.00000       Uiso       1.00
      C727          C  0.0484161  0.7552447  0.2160606    0.00000       Uiso       1.00
      C728          C  0.0527426  0.7333488  0.2184039    0.00000       Uiso       1.00
      C729          C  0.0746834  0.7155061  0.2097197    0.00000       Uiso       1.00
      C730          C  0.0927424  0.7190249  0.1997723    0.00000       Uiso       1.00
      C731          C  0.0879981  0.7411758  0.1979188    0.00000       Uiso       1.00
      C732          C  0.0663047  0.7594892  0.2042940    0.00000       Uiso       1.00
       O42          O  0.0074056  0.7717265  0.2378871    0.00000       Uiso       1.00
      H600          H  0.0390075  0.7302224  0.2268280    0.00000       Uiso       1.00
      H601          H  0.0772681  0.6990293  0.2110465    0.00000       Uiso       1.00
      H602          H  0.1010358  0.7441965  0.1926656    0.00000       Uiso       1.00
       B19          B  0.9904444  0.7953287  0.2429280    0.00000       Uiso       1.00
       B20          B  0.2147422  0.6156096  0.1531434    0.00000       Uiso       1.00
       B21          B  0.1702722  0.8398505  0.1080123    0.00000       Uiso       1.00
      H603          H  0.0184456  0.8351777  0.2169178    0.00000       Uiso       1.00
      H604          H  0.0487868  0.8431418  0.1944803    0.00000       Uiso       1.00
      H605          H  0.1046306  0.8565331  0.1404828    0.00000       Uiso       1.00
      H606          H  0.0737782  0.8493358  0.1630612    0.00000       Uiso       1.00
      C733          C  0.2125600  0.1177949  0.1914192    0.00000       Uiso       1.00
      C734          C  0.2042835  0.1211508  0.2135998    0.00000       Uiso       1.00
      C735          C  0.1933119  0.1102326  0.2311537    0.00000       Uiso       1.00
      C736          C  0.1842234  0.1146746  0.2532808    0.00000       Uiso       1.00
      C737          C  0.1846883  0.1311568  0.2584022    0.00000       Uiso       1.00
      C738          C  0.1955690  0.1421651  0.2404973    0.00000       Uiso       1.00
      C739          C  0.2068743  0.1362286  0.2181594    0.00000       Uiso       1.00
       O43          O  0.2107930  0.1041576  0.1842507    0.00000       Uiso       1.00
      H607          H  0.1919411  0.0981776  0.2275865    0.00000       Uiso       1.00
      H608          H  0.1767131  0.1052311  0.2662434    0.00000       Uiso       1.00
      H609          H  0.1941384  0.1563570  0.2438742    0.00000       Uiso       1.00
      C740          C  0.2570125  0.2205099  0.2053325    0.00000       Uiso       1.00
      C741          C  0.2536431  0.2066157  0.2004092    0.00000       Uiso       1.00
      C742          C  0.2645486  0.2000415  0.1785214    0.00000       Uiso       1.00
      C743          C  0.2600930  0.1870126  0.1738728    0.00000       Uiso       1.00
      C744          C  0.2436090  0.1814281  0.1908171    0.00000       Uiso       1.00
      C745          C  0.2326133  0.1884443  0.2127045    0.00000       Uiso       1.00
      C746          C  0.2385645  0.1994672  0.2180734    0.00000       Uiso       1.00
       O44          O  0.2706523  0.2294420  0.1899331    0.00000       Uiso       1.00
      H610          H  0.2766043  0.2049786  0.1650988    0.00000       Uiso       1.00
      H611          H  0.2695274  0.1815664  0.1569198    0.00000       Uiso       1.00
      H612          H  0.2184193  0.1864995  0.2254655    0.00000       Uiso       1.00
      C747          C  0.1543109  0.1621506  0.3524542    0.00000       Uiso       1.00
      C748          C  0.1682058  0.1704413  0.3351958    0.00000       Uiso       1.00
      C749          C  0.1747948  0.1814139  0.3395270    0.00000       Uiso       1.00
      C750          C  0.1878237  0.1905160  0.3220485    0.00000       Uiso       1.00
      C751          C  0.1933930  0.1900634  0.2999873    0.00000       Uiso       1.00
      C752          C  0.1863620  0.1791815  0.2960080    0.00000       Uiso       1.00
      C753          C  0.1753396  0.1678637  0.3129743    0.00000       Uiso       1.00
       O45          O  0.1453917  0.1639030  0.3750209    0.00000       Uiso       1.00
      H613          H  0.1698697  0.1827751  0.3565147    0.00000       Uiso       1.00
      H614          H  0.1932819  0.1980270  0.3260355    0.00000       Uiso       1.00
      H615          H  0.1882947  0.1806203  0.2798761    0.00000       Uiso       1.00
      C754          C  0.1474640  0.1517840  0.3482041    0.00000       Uiso       1.00
      C755          C  0.1551910  0.1478616  0.3263978    0.00000       Uiso       1.00
      C756          C  0.1486295  0.1368726  0.3220469    0.00000       Uiso       1.00
      C757          C  0.1574429  0.1321560  0.3001032    0.00000       Uiso       1.00
      C758          C  0.1740576  0.1370883  0.2820927    0.00000       Uiso       1.00
      C759          C  0.1806328  0.1479172  0.2868421    0.00000       Uiso       1.00
      C760          C  0.1702516  0.1549290  0.3085149    0.00000       Uiso       1.00
       O46          O  0.1332742  0.1453257  0.3674465    0.00000       Uiso       1.00
      H616          H  0.1365697  0.1320732  0.3357540    0.00000       Uiso       1.00
      H617          H  0.1512613  0.1244707  0.2974595    0.00000       Uiso       1.00
      H618          H  0.1948372  0.1497417  0.2738223    0.00000       Uiso       1.00
      C761          C  0.2459298  0.2273425  0.2267912    0.00000       Uiso       1.00
      C762          C  0.2318603  0.2196013  0.2447912    0.00000       Uiso       1.00
      C763          C  0.2209626  0.2261484  0.2666876    0.00000       Uiso       1.00
      C764          C  0.2078420  0.2173216  0.2845326    0.00000       Uiso       1.00
      C765          C  0.2064421  0.2007079  0.2809986    0.00000       Uiso       1.00
      C766          C  0.2177521  0.1941473  0.2588500    0.00000       Uiso       1.00
      C767          C  0.2290327  0.2045413  0.2405496    0.00000       Uiso       1.00
       O47          O  0.2509858  0.2415340  0.2281938    0.00000       Uiso       1.00
      H619          H  0.2226140  0.2382075  0.2698370    0.00000       Uiso       1.00
      H620          H  0.1990277  0.2234920  0.3010397    0.00000       Uiso       1.00
      H621          H  0.2189344  0.1799448  0.2558421    0.00000       Uiso       1.00
      C768          C  0.2229253  0.1288900  0.1742135    0.00000       Uiso       1.00
      C769          C  0.2268610  0.1429596  0.1780206    0.00000       Uiso       1.00
      C770          C  0.2378488  0.1538703  0.1604779    0.00000       Uiso       1.00
      C771          C  0.2425791  0.1669910  0.1645766    0.00000       Uiso       1.00
      C772          C  0.2376625  0.1683787  0.1861167    0.00000       Uiso       1.00
      C773          C  0.2268348  0.1570559  0.2035127    0.00000       Uiso       1.00
      C774          C  0.2198087  0.1457739  0.2001431    0.00000       Uiso       1.00
       O48          O  0.2293681  0.1238459  0.1535697    0.00000       Uiso       1.00
      H622          H  0.2426367  0.1522298  0.1436233    0.00000       Uiso       1.00
      H623          H  0.2502627  0.1758154  0.1507165    0.00000       Uiso       1.00
      H624          H  0.2250228  0.1558654  0.2195345    0.00000       Uiso       1.00
       B22          B  0.2215526  0.1081250  0.1601676    0.00000       Uiso       1.00
       B23          B  0.2667004  0.2427546  0.2046614    0.00000       Uiso       1.00
       B24          B  0.1320710  0.1531330  0.3843783    0.00000       Uiso       1.00
