data_19
_audit_creation_date              0000-00-00
_audit_creation_method            'LanYouShi'
_symmetry_space_group_name_H-M    'P1'
_cell_length_a                    84.9225998
_cell_length_b                    73.5671005
_cell_length_c                    73.5671005
_cell_angle_alpha                 70.5409012
_cell_angle_beta                  54.7476997
_cell_angle_gamma                 54.7476997
loop_
_atom_site_label
_atom_site_type_symbol
_atom_site_fract_x
_atom_site_fract_y
_atom_site_fract_z
_atom_site_U_iso_or_equiv
_atom_site_adp_type
_atom_site_occupancy
        C1          C  0.4999998  0.5000005  0.5000001    0.00000       Uiso       1.00
        C2          C  0.5308822  0.3642465  0.4287003    0.00000       Uiso       1.00
        C3          C  0.5203725  0.3873201  0.4240984    0.00000       Uiso       1.00
        C4          C  0.5122156  0.3949186  0.4092191    0.00000       Uiso       1.00
        C5          C  0.5147903  0.3796074  0.3988309    0.00000       Uiso       1.00
        C6          C  0.5255430  0.3564917  0.4032320    0.00000       Uiso       1.00
        C7          C  0.5335678  0.3488984  0.4182328    0.00000       Uiso       1.00
        H1          H  0.5369816  0.3579702  0.4403891    0.00000       Uiso       1.00
        H2          H  0.5418150  0.3311347  0.4219864    0.00000       Uiso       1.00
        H3          H  0.5083950  0.3858677  0.3873587    0.00000       Uiso       1.00
        C8          C  0.5555287  0.4240991  0.6126804    0.00000       Uiso       1.00
        C9          C  0.5404171  0.4287010  0.6357540    0.00000       Uiso       1.00
       C10          C  0.5785649  0.4092199  0.6050819    0.00000       Uiso       1.00
       C11          C  0.5863784  0.3988316  0.6203931    0.00000       Uiso       1.00
       C12          C  0.5712246  0.4032328  0.6435089    0.00000       Uiso       1.00
       C13          C  0.5481989  0.4182335  0.6511022    0.00000       Uiso       1.00
        H4          H  0.5226288  0.4403898  0.6420303    0.00000       Uiso       1.00
        H5          H  0.5361982  0.4219872  0.6688658    0.00000       Uiso       1.00
        H6          H  0.6042460  0.3873594  0.6141327    0.00000       Uiso       1.00
       C14          C  0.3317904  0.6126810  0.5759016    0.00000       Uiso       1.00
       C15          C  0.3238283  0.6357545  0.5712997    0.00000       Uiso       1.00
       C16          C  0.3163528  0.6050824  0.5907807    0.00000       Uiso       1.00
       C17          C  0.2932280  0.6203936  0.6011690    0.00000       Uiso       1.00
       C18          C  0.2852660  0.6435094  0.5967680    0.00000       Uiso       1.00
       C19          C  0.3006983  0.6511027  0.5817671    0.00000       Uiso       1.00
        H7          H  0.3353403  0.6420309  0.5596108    0.00000       Uiso       1.00
        H8          H  0.2949355  0.6688663  0.5780135    0.00000       Uiso       1.00
        H9          H  0.2816208  0.6141332  0.6126412    0.00000       Uiso       1.00
       C20          C  0.5923076  0.5759020  0.3873197    0.00000       Uiso       1.00
       C21          C  0.6048715  0.5713002  0.3642461    0.00000       Uiso       1.00
       C22          C  0.5928659  0.5907813  0.3949182    0.00000       Uiso       1.00
       C23          C  0.6056025  0.6011695  0.3796070    0.00000       Uiso       1.00
       C24          C  0.6179655  0.5967684  0.3564913    0.00000       Uiso       1.00
       C25          C  0.6175340  0.5817677  0.3488979    0.00000       Uiso       1.00
       H10          H  0.6050484  0.5596113  0.3579698    0.00000       Uiso       1.00
       H11          H  0.6270506  0.5780140  0.3311343    0.00000       Uiso       1.00
       H12          H  0.6057374  0.6126418  0.3858674    0.00000       Uiso       1.00
        S1          S  0.5982796  0.4033321  0.5756795    0.00000       Uiso       1.00
        O1          O  0.6202520  0.3879550  0.5723953    0.00000       Uiso       1.00
        O2          O  0.5973172  0.4235338  0.5639793    0.00000       Uiso       1.00
        O3          O  0.5923920  0.3931528  0.5668060    0.00000       Uiso       1.00
       H13          H  0.6028363  0.3900334  0.5512092    0.00000       Uiso       1.00
        S2          S  0.3260403  0.5756801  0.5966685    0.00000       Uiso       1.00
        O4          O  0.3073522  0.5723959  0.6120456    0.00000       Uiso       1.00
        O5          O  0.3397460  0.5674424  0.6061218    0.00000       Uiso       1.00
        O6          O  0.3396783  0.5630780  0.5749139    0.00000       Uiso       1.00
       H14          H  0.3448305  0.5474798  0.5780215    0.00000       Uiso       1.00
        S3          S  0.5772907  0.5966690  0.4243205    0.00000       Uiso       1.00
        O7          O  0.5806017  0.6120462  0.4276048    0.00000       Uiso       1.00
        O8          O  0.5848296  0.5764674  0.4360208    0.00000       Uiso       1.00
        O9          O  0.5523501  0.6068484  0.4331941    0.00000       Uiso       1.00
       H15          H  0.5440782  0.6099678  0.4487909    0.00000       Uiso       1.00
        S4          S  0.4983886  0.4243209  0.4033314    0.00000       Uiso       1.00
       O10          O  0.4917933  0.4276052  0.3879544    0.00000       Uiso       1.00
       O11          O  0.5133097  0.4325587  0.3938782    0.00000       Uiso       1.00
       O12          O  0.4776698  0.4369230  0.4250861    0.00000       Uiso       1.00
       H16          H  0.4703314  0.4525212  0.4219784    0.00000       Uiso       1.00
       C26          C  0.5102240  0.4163009  0.4674046    0.00000       Uiso       1.00
       C27          C  0.5114747  0.4354402  0.4559735    0.00000       Uiso       1.00
       C28          C  0.5158468  0.4384424  0.4339116    0.00000       Uiso       1.00
       C29          C  0.5189525  0.4228219  0.4235797    0.00000       Uiso       1.00
       C30          C  0.5174796  0.4037697  0.4350879    0.00000       Uiso       1.00
       C31          C  0.5130585  0.4007660  0.4571947    0.00000       Uiso       1.00
       H17          H  0.5072997  0.4132363  0.4842251    0.00000       Uiso       1.00
       H18          H  0.5115247  0.3865252  0.4667512    0.00000       Uiso       1.00
       H19          H  0.5166224  0.4530761  0.4246858    0.00000       Uiso       1.00
       H20          H  0.5227283  0.4256003  0.4064507    0.00000       Uiso       1.00
       C32          C  0.5325512  0.4559741  0.5645604    0.00000       Uiso       1.00
       C33          C  0.5223709  0.4674053  0.5836997    0.00000       Uiso       1.00
       C34          C  0.5502411  0.4339121  0.5615583    0.00000       Uiso       1.00
       C35          C  0.5574672  0.4235803  0.5771787    0.00000       Uiso       1.00
       C36          C  0.5474321  0.4350886  0.5962309    0.00000       Uiso       1.00
       C37          C  0.5297464  0.4571954  0.5992345    0.00000       Uiso       1.00
       H21          H  0.5084748  0.4842257  0.5867642    0.00000       Uiso       1.00
       H22          H  0.5217238  0.4667520  0.6134751    0.00000       Uiso       1.00
       H23          H  0.5586911  0.4246863  0.5469247    0.00000       Uiso       1.00
       H24          H  0.5708205  0.4064513  0.5744004    0.00000       Uiso       1.00
       C38          C  0.4028879  0.5645610  0.5440265    0.00000       Uiso       1.00
       C39          C  0.3939290  0.5837003  0.5325954    0.00000       Uiso       1.00
       C40          C  0.3882002  0.5615588  0.5660885    0.00000       Uiso       1.00
       C41          C  0.3653535  0.5771792  0.5764202    0.00000       Uiso       1.00
       C42          C  0.3563366  0.5962314  0.5649120    0.00000       Uiso       1.00
       C43          C  0.3710186  0.5992351  0.5428053    0.00000       Uiso       1.00
       H25          H  0.4047606  0.5867648  0.5157750    0.00000       Uiso       1.00
       H26          H  0.3648005  0.6134759  0.5332487    0.00000       Uiso       1.00
       H27          H  0.3943838  0.5469251  0.5753143    0.00000       Uiso       1.00
       H28          H  0.3547787  0.5744008  0.5935493    0.00000       Uiso       1.00
       C44          C  0.5530852  0.5440270  0.4354397    0.00000       Uiso       1.00
       C45          C  0.5734752  0.5325959  0.4163002    0.00000       Uiso       1.00
       C46          C  0.5457110  0.5660889  0.4384420    0.00000       Uiso       1.00
       C47          C  0.5582259  0.5764207  0.4228216    0.00000       Uiso       1.00
       C48          C  0.5787510  0.5649126  0.4037693    0.00000       Uiso       1.00
       C49          C  0.5861756  0.5428059  0.4007654    0.00000       Uiso       1.00
       H29          H  0.5794639  0.5157756  0.4132356    0.00000       Uiso       1.00
       H30          H  0.6019502  0.5332493  0.3865246    0.00000       Uiso       1.00
       H31          H  0.5303017  0.5753147  0.4530758    0.00000       Uiso       1.00
       H32          H  0.5516717  0.5935497  0.4256001    0.00000       Uiso       1.00
       C50          C  0.4909137  0.4721104  0.4999610    0.00000       Uiso       1.00
       C51          C  0.5033738  0.4831951  0.4878026    0.00000       Uiso       1.00
       C52          C  0.5175967  0.4790606  0.4646172    0.00000       Uiso       1.00
       C53          C  0.5203330  0.4635682  0.4545060    0.00000       Uiso       1.00
       C54          C  0.5084183  0.4520842  0.4669118    0.00000       Uiso       1.00
       C55          C  0.4934435  0.4568136  0.4897874    0.00000       Uiso       1.00
       H33          H  0.4792532  0.4752360  0.5176151    0.00000       Uiso       1.00
       H34          H  0.5267338  0.4877214  0.4538607    0.00000       Uiso       1.00
       H35          H  0.5320622  0.4604475  0.4368695    0.00000       Uiso       1.00
       C56          C  0.5088232  0.4878031  0.5168055    0.00000       Uiso       1.00
       C57          C  0.5091250  0.4999615  0.5278901    0.00000       Uiso       1.00
       C58          C  0.5177854  0.4646177  0.5209402    0.00000       Uiso       1.00
       C59          C  0.5251602  0.4545066  0.5364326    0.00000       Uiso       1.00
       C60          C  0.5246694  0.4669123  0.5479164    0.00000       Uiso       1.00
       C61          C  0.5167687  0.4897878  0.5431869    0.00000       Uiso       1.00
       H36          H  0.5031315  0.5176155  0.5247644    0.00000       Uiso       1.00
       H37          H  0.5194045  0.4538614  0.5122796    0.00000       Uiso       1.00
       H38          H  0.5310672  0.4368702  0.5395536    0.00000       Uiso       1.00
       C62          C  0.4743710  0.5168061  0.5121974    0.00000       Uiso       1.00
       C63          C  0.4629845  0.5278910  0.5000390    0.00000       Uiso       1.00
       C64          C  0.4612739  0.5209406  0.5353829    0.00000       Uiso       1.00
       C65          C  0.4384067  0.5364330  0.5454941    0.00000       Uiso       1.00
       C66          C  0.4274138  0.5479170  0.5330882    0.00000       Uiso       1.00
       C67          C  0.4400440  0.5431877  0.5102127    0.00000       Uiso       1.00
       H39          H  0.4721037  0.5247654  0.4823849    0.00000       Uiso       1.00
       H40          H  0.4683155  0.5122798  0.5461392    0.00000       Uiso       1.00
       H41          H  0.4293787  0.5395538  0.5631306    0.00000       Uiso       1.00
       C68          C  0.5134313  0.5121979  0.4831946    0.00000       Uiso       1.00
       C69          C  0.5369761  0.5000394  0.4721095    0.00000       Uiso       1.00
       C70          C  0.5033428  0.5353835  0.4790605    0.00000       Uiso       1.00
       C71          C  0.5160989  0.5454947  0.4635682    0.00000       Uiso       1.00
       C72          C  0.5394976  0.5330887  0.4520837    0.00000       Uiso       1.00
       C73          C  0.5497429  0.5102130  0.4568127    0.00000       Uiso       1.00
       H42          H  0.5455109  0.4823853  0.4752348    0.00000       Uiso       1.00
       H43          H  0.4855449  0.5461400  0.4877217    0.00000       Uiso       1.00
       H44          H  0.5074903  0.5631312  0.4604478    0.00000       Uiso       1.00
        S5          S  0.5167544  0.5066195  0.5563955    0.00000       Uiso       1.00
       O13          O  0.5251191  0.4930953  0.5712520    0.00000       Uiso       1.00
       O14          O  0.4945253  0.5242516  0.5685966    0.00000       Uiso       1.00
       O15          O  0.5316587  0.5165382  0.5384718    0.00000       Uiso       1.00
       H45          H  0.5316527  0.5254758  0.5454642    0.00000       Uiso       1.00
        S6          S  0.4268498  0.5563967  0.4933809    0.00000       Uiso       1.00
       O16          O  0.4036287  0.5712531  0.5069051    0.00000       Uiso       1.00
       O17          O  0.4296536  0.5397520  0.4841721    0.00000       Uiso       1.00
       O18          O  0.4376489  0.5695358  0.4743914    0.00000       Uiso       1.00
       H46          H  0.4306655  0.5765397  0.4654504    0.00000       Uiso       1.00
        S7          S  0.5797690  0.4933811  0.4436033    0.00000       Uiso       1.00
       O19          O  0.5894659  0.5069053  0.4287468    0.00000       Uiso       1.00
       O20          O  0.5873724  0.4757495  0.4314020    0.00000       Uiso       1.00
       O21          O  0.5866690  0.4834616  0.4615264    0.00000       Uiso       1.00
       H47          H  0.6025929  0.4745239  0.4545337    0.00000       Uiso       1.00
        S8          S  0.4766264  0.4436048  0.5066191    0.00000       Uiso       1.00
       O22          O  0.4817860  0.4287483  0.4930949    0.00000       Uiso       1.00
       O23          O  0.4535767  0.4602495  0.5158278    0.00000       Uiso       1.00
       O24          O  0.4815750  0.4304657  0.5256086    0.00000       Uiso       1.00
       H48          H  0.4726545  0.4234618  0.5345495    0.00000       Uiso       1.00
       C74          C  0.8748313  0.6251130  0.8750002    0.00000       Uiso       1.00
       C75          C  0.0106311  0.6654985  0.7701329    0.00000       Uiso       1.00
       C76          C  0.9875548  0.6806080  0.7827082    0.00000       Uiso       1.00
       C77          C  0.9799592  0.7036375  0.7821638    0.00000       Uiso       1.00
       C78          C  0.9952763  0.7114464  0.7694296    0.00000       Uiso       1.00
       C79          C  0.0183950  0.6962945  0.7570550    0.00000       Uiso       1.00
       C80          C  0.0259852  0.6732756  0.7574726    0.00000       Uiso       1.00
       H49          H  0.0169050  0.6477155  0.7699453    0.00000       Uiso       1.00
       H50          H  0.0437509  0.6612766  0.7479470    0.00000       Uiso       1.00
       H51          H  0.9890182  0.7293088  0.7693055    0.00000       Uiso       1.00
       C81          C  0.9507073  0.4569542  0.8545275    0.00000       Uiso       1.00
       C82          C  0.9460884  0.4490024  0.8440211    0.00000       Uiso       1.00
       C83          C  0.9656003  0.4415131  0.8626673    0.00000       Uiso       1.00
       C84          C  0.9759852  0.4183953  0.8600788    0.00000       Uiso       1.00
       C85          C  0.9715670  0.4104436  0.8493292    0.00000       Uiso       1.00
       C86          C  0.9565525  0.4258792  0.8413216    0.00000       Uiso       1.00
       H52          H  0.9343888  0.4605171  0.8379347    0.00000       Uiso       1.00
       H53          H  0.9527856  0.4201243  0.8330773    0.00000       Uiso       1.00
       H54          H  0.9874681  0.4067853  0.8664609    0.00000       Uiso       1.00
       C87          C  0.7620418  0.7174546  0.8195877    0.00000       Uiso       1.00
       C88          C  0.7389666  0.7300164  0.8347085    0.00000       Uiso       1.00
       C89          C  0.7696269  0.7180196  0.7965587    0.00000       Uiso       1.00
       C90          C  0.7543007  0.7307607  0.7887612    0.00000       Uiso       1.00
       C91          C  0.7311832  0.7431218  0.8039241    0.00000       Uiso       1.00
       C92          C  0.7236035  0.7426836  0.8269426    0.00000       Uiso       1.00
       H55          H  0.7327007  0.7301881  0.8524916    0.00000       Uiso       1.00
       H56          H  0.7058390  0.7521985  0.8389502    0.00000       Uiso       1.00
       H57          H  0.7605507  0.7309008  0.7708989    0.00000       Uiso       1.00
       C93          C  0.7990223  0.6454341  0.0431774    0.00000       Uiso       1.00
       C94          C  0.8036401  0.6559335  0.0511386    0.00000       Uiso       1.00
       C95          C  0.7841399  0.6372806  0.0586112    0.00000       Uiso       1.00
       C96          C  0.7737641  0.6398485  0.0817314    0.00000       Uiso       1.00
       C97          C  0.7781811  0.6505908  0.0896926    0.00000       Uiso       1.00
       C98          C  0.7931851  0.6586123  0.0742641    0.00000       Uiso       1.00
       H58          H  0.8153318  0.6620301  0.0396293    0.00000       Uiso       1.00
       H59          H  0.7969510  0.6668515  0.0800264    0.00000       Uiso       1.00
       H60          H  0.7622892  0.6334560  0.0933356    0.00000       Uiso       1.00
        S9          S  0.9715099  0.4511876  0.8764898    0.00000       Uiso       1.00
       O25          O  0.9868983  0.4324979  0.8830670    0.00000       Uiso       1.00
       O26          O  0.9513130  0.4638450  0.8957351    0.00000       Uiso       1.00
       O27          O  0.9816907  0.4659448  0.8604320    0.00000       Uiso       1.00
       H61          H  0.9848217  0.4710904  0.8677546    0.00000       Uiso       1.00
       S10          S  0.7990308  0.7024469  0.7768327    0.00000       Uiso       1.00
       O28          O  0.8022999  0.7057648  0.7548702    0.00000       Uiso       1.00
       O29          O  0.8072705  0.6792922  0.7822841    0.00000       Uiso       1.00
       O30          O  0.8116487  0.7105539  0.7778661    0.00000       Uiso       1.00
       H62          H  0.8272479  0.7022955  0.7674140    0.00000       Uiso       1.00
       S11          S  0.7782320  0.6234667  0.0489244    0.00000       Uiso       1.00
       O31          O  0.7628549  0.6168729  0.0676081    0.00000       Uiso       1.00
       O32          O  0.7984319  0.6042327  0.0362497    0.00000       Uiso       1.00
       O33          O  0.7680376  0.6395376  0.0341815    0.00000       Uiso       1.00
       H63          H  0.7649075  0.6322197  0.0290294    0.00000       Uiso       1.00
       S12          S  0.9505534  0.7233496  0.7977541    0.00000       Uiso       1.00
       O34          O  0.9472730  0.7453151  0.7944558    0.00000       Uiso       1.00
       O35          O  0.9423265  0.7178774  0.8209039    0.00000       Uiso       1.00
       O36          O  0.9379324  0.7223234  0.7896462    0.00000       Uiso       1.00
       H64          H  0.9223322  0.7327681  0.7979139    0.00000       Uiso       1.00
       C99          C  0.9585502  0.6474696  0.8015302    0.00000       Uiso       1.00
      C100          C  0.9394164  0.6576449  0.8219243    0.00000       Uiso       1.00
      C101          C  0.9364261  0.6753250  0.8293045    0.00000       Uiso       1.00
      C102          C  0.9520525  0.6825465  0.8167915    0.00000       Uiso       1.00
      C103          C  0.9710991  0.6725163  0.7962625    0.00000       Uiso       1.00
      C104          C  0.9740909  0.6548405  0.7888318    0.00000       Uiso       1.00
       H65          H  0.9616058  0.6335809  0.7955365    0.00000       Uiso       1.00
       H66          H  0.9883267  0.6468220  0.7730544    0.00000       Uiso       1.00
       H67          H  0.9217969  0.6837710  0.8447172    0.00000       Uiso       1.00
       H68          H  0.9492835  0.6958921  0.8233500    0.00000       Uiso       1.00
      C105          C  0.9188434  0.5280300  0.8634672    0.00000       Uiso       1.00
      C106          C  0.9073992  0.5190797  0.8647186    0.00000       Uiso       1.00
      C107          C  0.9409148  0.5133410  0.8590805    0.00000       Uiso       1.00
      C108          C  0.9512428  0.4905014  0.8559615    0.00000       Uiso       1.00
      C109          C  0.9397215  0.4814929  0.8574351    0.00000       Uiso       1.00
      C110          C  0.9176056  0.4961763  0.8618706    0.00000       Uiso       1.00
       H69          H  0.8905713  0.5299126  0.8676540    0.00000       Uiso       1.00
       H70          H  0.9080389  0.4899645  0.8634055    0.00000       Uiso       1.00
       H71          H  0.9501509  0.5195181  0.8583037    0.00000       Uiso       1.00
       H72          H  0.9683792  0.4799253  0.8521749    0.00000       Uiso       1.00
      C111          C  0.8102078  0.6782179  0.8425159    0.00000       Uiso       1.00
      C112          C  0.7910694  0.6986029  0.8527094    0.00000       Uiso       1.00
      C113          C  0.8131936  0.6708535  0.8248293    0.00000       Uiso       1.00
      C114          C  0.7975584  0.6833730  0.8176188    0.00000       Uiso       1.00
      C115          C  0.7785072  0.7038931  0.8276673    0.00000       Uiso       1.00
      C116          C  0.7755200  0.7113079  0.8453498    0.00000       Uiso       1.00
       H73          H  0.7880173  0.7045842  0.8666034    0.00000       Uiso       1.00
       H74          H  0.7612807  0.7270783  0.8533823    0.00000       Uiso       1.00
       H75          H  0.8278260  0.6554483  0.8163696    0.00000       Uiso       1.00
       H76          H  0.8003244  0.6768264  0.8042673    0.00000       Uiso       1.00
      C117          C  0.8308573  0.6365592  0.9720935    0.00000       Uiso       1.00
      C118          C  0.8423060  0.6353002  0.9810427    0.00000       Uiso       1.00
      C119          C  0.8087909  0.6409324  0.9867865    0.00000       Uiso       1.00
      C120          C  0.7984726  0.6440298  0.0096290    0.00000       Uiso       1.00
      C121          C  0.8099985  0.6425485  0.0186360    0.00000       Uiso       1.00
      C122          C  0.8321098  0.6381264  0.0039487    0.00000       Uiso       1.00
       H77          H  0.8591306  0.6323747  0.9702071    0.00000       Uiso       1.00
       H78          H  0.8416798  0.6365862  0.0101590    0.00000       Uiso       1.00
       H79          H  0.7995515  0.6417145  0.9806101    0.00000       Uiso       1.00
       H80          H  0.7813394  0.6478067  0.0202084    0.00000       Uiso       1.00
      C123          C  0.9027174  0.6342381  0.8380321    0.00000       Uiso       1.00
      C124          C  0.8916436  0.6339310  0.8615712    0.00000       Uiso       1.00
      C125          C  0.8957948  0.6428832  0.8716573    0.00000       Uiso       1.00
      C126          C  0.9112931  0.6502536  0.8589032    0.00000       Uiso       1.00
      C127          C  0.9227662  0.6497681  0.8355096    0.00000       Uiso       1.00
      C128          C  0.9180198  0.6418773  0.8252675    0.00000       Uiso       1.00
       H81          H  0.8995788  0.6282524  0.8294998    0.00000       Uiso       1.00
       H82          H  0.8871430  0.6444978  0.8894518    0.00000       Uiso       1.00
       H83          H  0.9144270  0.6561530  0.8675091    0.00000       Uiso       1.00
      C129          C  0.8870252  0.5994917  0.8716108    0.00000       Uiso       1.00
      C130          C  0.8748621  0.5881101  0.8840657    0.00000       Uiso       1.00
      C131          C  0.9102128  0.5863966  0.8573777    0.00000       Uiso       1.00
      C132          C  0.9203202  0.5635363  0.8546278    0.00000       Uiso       1.00
      C133          C  0.9079091  0.5525484  0.8665381    0.00000       Uiso       1.00
      C134          C  0.8850324  0.5651765  0.8815221    0.00000       Uiso       1.00
       H84          H  0.8572067  0.5972279  0.8957331    0.00000       Uiso       1.00
       H85          H  0.9209738  0.5934343  0.8482429    0.00000       Uiso       1.00
       H86          H  0.9379581  0.5545097  0.8428918    0.00000       Uiso       1.00
      C135          C  0.8580088  0.6385498  0.8661944    0.00000       Uiso       1.00
      C136          C  0.8469244  0.6620893  0.8659084    0.00000       Uiso       1.00
      C137          C  0.8538581  0.6284717  0.8572332    0.00000       Uiso       1.00
      C138          C  0.8383511  0.6412323  0.8498743    0.00000       Uiso       1.00
      C139          C  0.8268677  0.6646255  0.8503808    0.00000       Uiso       1.00
      C140          C  0.8316128  0.6748606  0.8582807    0.00000       Uiso       1.00
       H87          H  0.8500618  0.6706163  0.8719019    0.00000       Uiso       1.00
       H88          H  0.8625173  0.6106787  0.8556029    0.00000       Uiso       1.00
       H89          H  0.8352184  0.6326317  0.8439673    0.00000       Uiso       1.00
      C141          C  0.8626474  0.6284796  0.9006245    0.00000       Uiso       1.00
      C142          C  0.8748214  0.6160149  0.9119948    0.00000       Uiso       1.00
      C143          C  0.8394592  0.6427002  0.9137325    0.00000       Uiso       1.00
      C144          C  0.8293606  0.6454296  0.9365953    0.00000       Uiso       1.00
      C145          C  0.8417820  0.6335102  0.9475724    0.00000       Uiso       1.00
      C146          C  0.8646604  0.6185380  0.9349307    0.00000       Uiso       1.00
       H90          H  0.8924779  0.6043561  0.9028665    0.00000       Uiso       1.00
       H91          H  0.8286909  0.6518408  0.9067031    0.00000       Uiso       1.00
       H92          H  0.8117216  0.6571571  0.9456323    0.00000       Uiso       1.00
       S13          S  0.8681946  0.5519881  0.8983335    0.00000       Uiso       1.00
       O37          O  0.8817160  0.5287737  0.8931598    0.00000       Uiso       1.00
       O38          O  0.8505473  0.5620216  0.8937510    0.00000       Uiso       1.00
       O39          O  0.8582907  0.5549996  0.9231512    0.00000       Uiso       1.00
       H93          H  0.8493499  0.5480164  0.9320796    0.00000       Uiso       1.00
       S14          S  0.8184054  0.7048791  0.8583148    0.00000       Uiso       1.00
       O40          O  0.8035325  0.7145820  0.8499649    0.00000       Uiso       1.00
       O41          O  0.8350555  0.7112799  0.8444756    0.00000       Uiso       1.00
       O42          O  0.8052796  0.7130611  0.8822517    0.00000       Uiso       1.00
       H94          H  0.7982766  0.7289814  0.8822826    0.00000       Uiso       1.00
       S15          S  0.8815116  0.6017155  0.9481038    0.00000       Uiso       1.00
       O43          O  0.8679983  0.6068685  0.9713229    0.00000       Uiso       1.00
       O44          O  0.8991519  0.6063080  0.9380743    0.00000       Uiso       1.00
       O45          O  0.8914261  0.5769004  0.9450701    0.00000       Uiso       1.00
       H95          H  0.9003742  0.5679662  0.9520451    0.00000       Uiso       1.00
       S16          S  0.9312137  0.6418703  0.7952490    0.00000       Uiso       1.00
       O46          O  0.9460786  0.6502288  0.7855536    0.00000       Uiso       1.00
       O47          O  0.9145545  0.6557152  0.7888606    0.00000       Uiso       1.00
       O48          O  0.9443467  0.6179406  0.7870455    0.00000       Uiso       1.00
       H96          H  0.9513425  0.6179241  0.7711251    0.00000       Uiso       1.00
      C147          C  0.7501675  0.8750005  0.3748883    0.00000       Uiso       1.00
      C148          C  0.7098895  0.8440216  0.5509989    0.00000       Uiso       1.00
      C149          C  0.6947640  0.8545280  0.5430472    0.00000       Uiso       1.00
      C150          C  0.6717314  0.8626677  0.5584881    0.00000       Uiso       1.00
      C151          C  0.6639349  0.8600792  0.5816061    0.00000       Uiso       1.00
      C152          C  0.6791027  0.8493297  0.5895577    0.00000       Uiso       1.00
      C153          C  0.7021248  0.8413221  0.5741221    0.00000       Uiso       1.00
       H97          H  0.7276754  0.8379351  0.5394842    0.00000       Uiso       1.00
       H98          H  0.7141361  0.8330778  0.5798770    0.00000       Uiso       1.00
       H99          H  0.6460698  0.8664614  0.5932161    0.00000       Uiso       1.00
      C154          C  0.9183695  0.8195880  0.2825467    0.00000       Uiso       1.00
      C155          C  0.9263239  0.8347087  0.2699849    0.00000       Uiso       1.00
      C156          C  0.9338135  0.7965590  0.2819817    0.00000       Uiso       1.00
      C157          C  0.9569373  0.7887614  0.2692405    0.00000       Uiso       1.00
      C158          C  0.9648918  0.8039244  0.2568794    0.00000       Uiso       1.00
      C159          C  0.9494529  0.8269429  0.2573177    0.00000       Uiso       1.00
      H100          H  0.9148066  0.8524919  0.2698132    0.00000       Uiso       1.00
      H101          H  0.9552099  0.8389505  0.2478028    0.00000       Uiso       1.00
      H102          H  0.9685495  0.7708992  0.2691005    0.00000       Uiso       1.00
      C160          C  0.6578004  0.0431778  0.3545660    0.00000       Uiso       1.00
      C161          C  0.6452215  0.0511389  0.3440667    0.00000       Uiso       1.00
      C162          C  0.6572492  0.0586115  0.3627195    0.00000       Uiso       1.00
      C163          C  0.6445046  0.0817317  0.3601517    0.00000       Uiso       1.00
      C164          C  0.6321264  0.0896929  0.3494093    0.00000       Uiso       1.00
      C165          C  0.6325510  0.0742644  0.3413879    0.00000       Uiso       1.00
      H103          H  0.6450391  0.0396296  0.3379700    0.00000       Uiso       1.00
      H104          H  0.6230227  0.0800267  0.3331487    0.00000       Uiso       1.00
      H105          H  0.6443754  0.0933359  0.3665442    0.00000       Uiso       1.00
      C166          C  0.7297361  0.7827084  0.3193932    0.00000       Uiso       1.00
      C167          C  0.7192353  0.7701330  0.3345027    0.00000       Uiso       1.00
      C168          C  0.7378761  0.7821639  0.2963638    0.00000       Uiso       1.00
      C169          C  0.7352933  0.7694297  0.2885548    0.00000       Uiso       1.00
      C170          C  0.7245493  0.7570551  0.3037067    0.00000       Uiso       1.00
      C171          C  0.7165415  0.7574728  0.3267255    0.00000       Uiso       1.00
      H106          H  0.7131490  0.7699454  0.3522857    0.00000       Uiso       1.00
      H107          H  0.7083014  0.7479472  0.3387246    0.00000       Uiso       1.00
      H108          H  0.7416755  0.7693056  0.2706924    0.00000       Uiso       1.00
       S17          S  0.9241356  0.7768330  0.2975543    0.00000       Uiso       1.00
       O49          O  0.9428291  0.7548704  0.2942364    0.00000       Uiso       1.00
       O50          O  0.9114605  0.7777931  0.2900244    0.00000       Uiso       1.00
       O51          O  0.9093902  0.7827029  0.3224903    0.00000       Uiso       1.00
      H109          H  0.9042426  0.7722526  0.3307609    0.00000       Uiso       1.00
       S18          S  0.6728437  0.0489247  0.3765334    0.00000       Uiso       1.00
       O52          O  0.6695371  0.0676085  0.3831273    0.00000       Uiso       1.00
       O53          O  0.6959997  0.0352360  0.3616086    0.00000       Uiso       1.00
       O54          O  0.6647420  0.0352739  0.3972465    0.00000       Uiso       1.00
      H110          H  0.6730120  0.0301222  0.4045780    0.00000       Uiso       1.00
       S19          S  0.7516917  0.7977542  0.2766517    0.00000       Uiso       1.00
       O55          O  0.7582703  0.7944558  0.2546861    0.00000       Uiso       1.00
       O56          O  0.7709403  0.7902234  0.2776051    0.00000       Uiso       1.00
       O57          O  0.7356228  0.8226849  0.2825438    0.00000       Uiso       1.00
      H111          H  0.7429416  0.8309647  0.2721010    0.00000       Uiso       1.00
       S20          S  0.6519992  0.8764902  0.5488138    0.00000       Uiso       1.00
       O58          O  0.6300337  0.8830674  0.5675033    0.00000       Uiso       1.00
       O59          O  0.6574572  0.8615776  0.5351117    0.00000       Uiso       1.00
       O60          O  0.6530233  0.8972155  0.5351814    0.00000       Uiso       1.00
      H112          H  0.6425679  0.9045516  0.5300363    0.00000       Uiso       1.00
      C172          C  0.7278811  0.8647190  0.4809217    0.00000       Uiso       1.00
      C173          C  0.7176881  0.8634678  0.4719713    0.00000       Uiso       1.00
      C174          C  0.7000034  0.8590812  0.4866603    0.00000       Uiso       1.00
      C175          C  0.6927945  0.8559621  0.5095000    0.00000       Uiso       1.00
      C176          C  0.7028424  0.8574355  0.5185084    0.00000       Uiso       1.00
      C177          C  0.7205228  0.8618710  0.5038250    0.00000       Uiso       1.00
      H113          H  0.7417738  0.8676543  0.4700887    0.00000       Uiso       1.00
      H114          H  0.7285546  0.8634057  0.5100368    0.00000       Uiso       1.00
      H115          H  0.6915441  0.8583045  0.4804833    0.00000       Uiso       1.00
      H116          H  0.6794447  0.8521757  0.5200760    0.00000       Uiso       1.00
      C178          C  0.8472753  0.8425162  0.3217833    0.00000       Uiso       1.00
      C179          C  0.8562201  0.8527096  0.3013984    0.00000       Uiso       1.00
      C180          C  0.8619762  0.8248296  0.3291478    0.00000       Uiso       1.00
      C181          C  0.8848218  0.8176192  0.3166283    0.00000       Uiso       1.00
      C182          C  0.8938245  0.8276676  0.2961082    0.00000       Uiso       1.00
      C183          C  0.8791292  0.8453500  0.2886934    0.00000       Uiso       1.00
      H117          H  0.8453782  0.8666035  0.2954170    0.00000       Uiso       1.00
      H118          H  0.8853360  0.8533824  0.2729229    0.00000       Uiso       1.00
      H119          H  0.8558035  0.8163700  0.3445531    0.00000       Uiso       1.00
      H120          H  0.8954073  0.8042678  0.3231749    0.00000       Uiso       1.00
      C184          C  0.6970482  0.9720937  0.3634420    0.00000       Uiso       1.00
      C185          C  0.6766501  0.9810429  0.3647013    0.00000       Uiso       1.00
      C186          C  0.7044218  0.9867867  0.3590686    0.00000       Uiso       1.00
      C187          C  0.6918989  0.0096293  0.3559701    0.00000       Uiso       1.00
      C188          C  0.6713658  0.0186364  0.3574516    0.00000       Uiso       1.00
      C189          C  0.6639417  0.0039490  0.3618739    0.00000       Uiso       1.00
      H121          H  0.6706612  0.9702074  0.3676270    0.00000       Uiso       1.00
      H122          H  0.6481613  0.0101594  0.3634142    0.00000       Uiso       1.00
      H123          H  0.7198374  0.9806103  0.3582864    0.00000       Uiso       1.00
      H124          H  0.6984525  0.0202087  0.3521931    0.00000       Uiso       1.00
      C190          C  0.7386584  0.8219244  0.3423564    0.00000       Uiso       1.00
      C191          C  0.7399184  0.8015306  0.3525319    0.00000       Uiso       1.00
      C192          C  0.7342687  0.8293046  0.3246762    0.00000       Uiso       1.00
      C193          C  0.7311552  0.8167917  0.3174546    0.00000       Uiso       1.00
      C194          C  0.7326376  0.7962627  0.3274849    0.00000       Uiso       1.00
      C195          C  0.7370762  0.7888322  0.3451609    0.00000       Uiso       1.00
      H125          H  0.7428563  0.7955369  0.3664206    0.00000       Uiso       1.00
      H126          H  0.7386178  0.7730547  0.3531794    0.00000       Uiso       1.00
      H127          H  0.7334852  0.8447173  0.3162301    0.00000       Uiso       1.00
      H128          H  0.7273659  0.8233500  0.3041090    0.00000       Uiso       1.00
      C196          C  0.7410714  0.8840660  0.4118911    0.00000       Uiso       1.00
      C197          C  0.7413630  0.8716111  0.4005096    0.00000       Uiso       1.00
      C198          C  0.7324081  0.8573784  0.4136048    0.00000       Uiso       1.00
      C199          C  0.7250504  0.8546286  0.4364651    0.00000       Uiso       1.00
      C200          C  0.7255515  0.8665386  0.4474529    0.00000       Uiso       1.00
      C201          C  0.7334446  0.8815225  0.4348248    0.00000       Uiso       1.00
      H129          H  0.7470595  0.8957332  0.4027733    0.00000       Uiso       1.00
      H130          H  0.7307817  0.8482438  0.4065672    0.00000       Uiso       1.00
      H131          H  0.7191486  0.8428926  0.4454917    0.00000       Uiso       1.00
      C202          C  0.7757958  0.8661945  0.3614515    0.00000       Uiso       1.00
      C203          C  0.7871664  0.8659083  0.3379121    0.00000       Uiso       1.00
      C204          C  0.7889076  0.8572338  0.3715295    0.00000       Uiso       1.00
      C205          C  0.8117737  0.8498748  0.3587689    0.00000       Uiso       1.00
      C206          C  0.8227507  0.8503809  0.3353758    0.00000       Uiso       1.00
      C207          C  0.8101056  0.8582805  0.3251407    0.00000       Uiso       1.00
      H132          H  0.7780354  0.8719015  0.3293851    0.00000       Uiso       1.00
      H133          H  0.7818788  0.8556036  0.3893226    0.00000       Uiso       1.00
      H134          H  0.8208133  0.8439680  0.3673696    0.00000       Uiso       1.00
      C208          C  0.7367271  0.9006248  0.3715217    0.00000       Uiso       1.00
      C209          C  0.7131828  0.9119952  0.3839866    0.00000       Uiso       1.00
      C210          C  0.7468073  0.9137326  0.3573006    0.00000       Uiso       1.00
      C211          C  0.7340431  0.9365954  0.3545712    0.00000       Uiso       1.00
      C212          C  0.7106445  0.9475726  0.3664910    0.00000       Uiso       1.00
      C213          C  0.7004080  0.9349310  0.3814635    0.00000       Uiso       1.00
      H135          H  0.7046546  0.9028669  0.3956456    0.00000       Uiso       1.00
      H136          H  0.7646050  0.9067032  0.3481596    0.00000       Uiso       1.00
      H137          H  0.7426450  0.9456325  0.3428433    0.00000       Uiso       1.00
      C214          C  0.7467841  0.8615715  0.3660704    0.00000       Uiso       1.00
      C215          C  0.7592491  0.8380323  0.3657637    0.00000       Uiso       1.00
      C216          C  0.7325472  0.8716576  0.3571177    0.00000       Uiso       1.00
      C217          C  0.7298031  0.8589035  0.3497473    0.00000       Uiso       1.00
      C218          C  0.7417232  0.8355099  0.3502333    0.00000       Uiso       1.00
      C219          C  0.7567112  0.8252678  0.3581245    0.00000       Uiso       1.00
      H138          H  0.7709199  0.8295000  0.3717498    0.00000       Uiso       1.00
      H139          H  0.7234049  0.8894521  0.3555028    0.00000       Uiso       1.00
      H140          H  0.7180637  0.8675095  0.3438475    0.00000       Uiso       1.00
       S21          S  0.8232791  0.8583142  0.2951223    0.00000       Uiso       1.00
       O61          O  0.8465019  0.8499643  0.2854193    0.00000       Uiso       1.00
       O62          O  0.8132398  0.8805422  0.2875261    0.00000       Uiso       1.00
       O63          O  0.8202521  0.8434116  0.2882274    0.00000       Uiso       1.00
      H141          H  0.8272272  0.8434279  0.2723076    0.00000       Uiso       1.00
       S22          S  0.6703836  0.9481043  0.3982864    0.00000       Uiso       1.00
       O64          O  0.6606778  0.9713234  0.3931334    0.00000       Uiso       1.00
       O65          O  0.6639964  0.9452873  0.4213286    0.00000       Uiso       1.00
       O66          O  0.6621851  0.9373038  0.3933436    0.00000       Uiso       1.00
      H142          H  0.6462616  0.9442762  0.4022671    0.00000       Uiso       1.00
       S23          S  0.7735353  0.7952493  0.3581324    0.00000       Uiso       1.00
       O67          O  0.7683660  0.7855538  0.3497738    0.00000       Uiso       1.00
       O68          O  0.7689552  0.7876339  0.3803539    0.00000       Uiso       1.00
       O69          O  0.7983563  0.7883671  0.3432243    0.00000       Uiso       1.00
      H143          H  0.8072914  0.7724472  0.3432269    0.00000       Uiso       1.00
       S24          S  0.7334710  0.8983338  0.4480131    0.00000       Uiso       1.00
       O70          O  0.7251235  0.8931600  0.4712276    0.00000       Uiso       1.00
       O71          O  0.7196215  0.9213784  0.4452167    0.00000       Uiso       1.00
       O72          O  0.7574102  0.8934007  0.4372083    0.00000       Uiso       1.00
      H144          H  0.7574370  0.9023181  0.4441885    0.00000       Uiso       1.00
      C220          C  0.3749443  0.3748882  0.1249999    0.00000       Uiso       1.00
      C221          C  0.4462620  0.3345028  0.2298674    0.00000       Uiso       1.00
      C222          C  0.4508707  0.3193933  0.2172920    0.00000       Uiso       1.00
      C223          C  0.4657602  0.2963638  0.2178364    0.00000       Uiso       1.00
      C224          C  0.4761519  0.2885549  0.2305706    0.00000       Uiso       1.00
      C225          C  0.4717440  0.3037068  0.2429453    0.00000       Uiso       1.00
      C226          C  0.4567330  0.3267257  0.2425276    0.00000       Uiso       1.00
      H145          H  0.4345652  0.3522858  0.2300550    0.00000       Uiso       1.00
      H146          H  0.4529740  0.3387247  0.2520532    0.00000       Uiso       1.00
      H147          H  0.4876322  0.2706925  0.2306947    0.00000       Uiso       1.00
      C227          C  0.2621887  0.5430471  0.1454726    0.00000       Uiso       1.00
      C228          C  0.2391115  0.5509988  0.1559790    0.00000       Uiso       1.00
      C229          C  0.2697803  0.5584881  0.1373329    0.00000       Uiso       1.00
      C230          C  0.2544588  0.5816060  0.1399214    0.00000       Uiso       1.00
      C231          C  0.2313394  0.5895576  0.1506709    0.00000       Uiso       1.00
      C232          C  0.2237530  0.5741220  0.1586785    0.00000       Uiso       1.00
      H148          H  0.2328403  0.5394841  0.1620653    0.00000       Uiso       1.00
      H149          H  0.2059868  0.5798769  0.1669228    0.00000       Uiso       1.00
      H150          H  0.2607140  0.5932159  0.1335392    0.00000       Uiso       1.00
      C233          C  0.2990840  0.2825466  0.1804123    0.00000       Uiso       1.00
      C234          C  0.3036915  0.2699847  0.1652916    0.00000       Uiso       1.00
      C235          C  0.2842050  0.2819816  0.2034413    0.00000       Uiso       1.00
      C236          C  0.2738224  0.2692404  0.2112388    0.00000       Uiso       1.00
      C237          C  0.2782291  0.2568793  0.1960759    0.00000       Uiso       1.00
      C238          C  0.2932296  0.2573175  0.1730574    0.00000       Uiso       1.00
      H151          H  0.3153804  0.2698130  0.1475084    0.00000       Uiso       1.00
      H152          H  0.2969876  0.2478026  0.1610498    0.00000       Uiso       1.00
      H153          H  0.2623502  0.2691003  0.2291011    0.00000       Uiso       1.00
      C239          C  0.4876329  0.3545671  0.9568228    0.00000       Uiso       1.00
      C240          C  0.5107113  0.3440678  0.9488616    0.00000       Uiso       1.00
      C241          C  0.4800308  0.3627206  0.9413890    0.00000       Uiso       1.00
      C242          C  0.4953431  0.3601528  0.9182688    0.00000       Uiso       1.00
      C243          C  0.5184637  0.3494104  0.9103076    0.00000       Uiso       1.00
      C244          C  0.5260607  0.3413889  0.9257360    0.00000       Uiso       1.00
      H154          H  0.5169903  0.3379712  0.9603708    0.00000       Uiso       1.00
      H155          H  0.5438280  0.3331498  0.9199737    0.00000       Uiso       1.00
      H156          H  0.4890799  0.3665453  0.9066646    0.00000       Uiso       1.00
       S25          S  0.2991870  0.5488136  0.1235103    0.00000       Uiso       1.00
       O73          O  0.3024628  0.5675033  0.1169332    0.00000       Uiso       1.00
       O74          O  0.3108929  0.5361562  0.1042650    0.00000       Uiso       1.00
       O75          O  0.3080671  0.5340565  0.1395681    0.00000       Uiso       1.00
      H157          H  0.3236662  0.5289109  0.1322456    0.00000       Uiso       1.00
       S26          S  0.2783102  0.2975543  0.2231673    0.00000       Uiso       1.00
       O76          O  0.2629346  0.2942363  0.2451299    0.00000       Uiso       1.00
       O77          O  0.2688467  0.3207090  0.2177159    0.00000       Uiso       1.00
       O78          O  0.3000685  0.2894473  0.2221339    0.00000       Uiso       1.00
      H158          H  0.2969572  0.2977057  0.2325860    0.00000       Uiso       1.00
       S27          S  0.4506223  0.3765345  0.9510757    0.00000       Uiso       1.00
       O79          O  0.4473351  0.3831283  0.9323921    0.00000       Uiso       1.00
       O80          O  0.4389134  0.3957685  0.9637504    0.00000       Uiso       1.00
       O81          O  0.4417559  0.3604636  0.9658186    0.00000       Uiso       1.00
      H159          H  0.4261557  0.3677815  0.9709707    0.00000       Uiso       1.00
       S28          S  0.4716568  0.2766517  0.2022462    0.00000       Uiso       1.00
       O82          O  0.4870437  0.2546862  0.2055445    0.00000       Uiso       1.00
       O83          O  0.4811076  0.2821238  0.1790963    0.00000       Uiso       1.00
       O84          O  0.4499017  0.2776779  0.2103540    0.00000       Uiso       1.00
      H160          H  0.4530140  0.2672332  0.2020863    0.00000       Uiso       1.00
      C245          C  0.4075496  0.3525317  0.1984700    0.00000       Uiso       1.00
      C246          C  0.4189853  0.3423563  0.1780759    0.00000       Uiso       1.00
      C247          C  0.4410552  0.3246763  0.1706958    0.00000       Uiso       1.00
      C248          C  0.4513902  0.3174548  0.1832087    0.00000       Uiso       1.00
      C249          C  0.4398775  0.3274850  0.2037377    0.00000       Uiso       1.00
      C250          C  0.4177628  0.3451608  0.2111683    0.00000       Uiso       1.00
      H161          H  0.3907230  0.3664203  0.2044637    0.00000       Uiso       1.00
      H162          H  0.4082027  0.3531792  0.2269459    0.00000       Uiso       1.00
      H163          H  0.4502848  0.3162303  0.1552830    0.00000       Uiso       1.00
      H164          H  0.4685252  0.3041092  0.1766502    0.00000       Uiso       1.00
      C251          C  0.3103405  0.4719712  0.1365330    0.00000       Uiso       1.00
      C252          C  0.2911972  0.4809216  0.1352815    0.00000       Uiso       1.00
      C253          C  0.3133360  0.4866602  0.1409197    0.00000       Uiso       1.00
      C254          C  0.2977054  0.5094998  0.1440386    0.00000       Uiso       1.00
      C255          C  0.2786492  0.5185083  0.1425651    0.00000       Uiso       1.00
      C256          C  0.2756521  0.5038249  0.1381294    0.00000       Uiso       1.00
      H165          H  0.2881376  0.4700886  0.1323461    0.00000       Uiso       1.00
      H166          H  0.2614087  0.5100366  0.1365946    0.00000       Uiso       1.00
      H167          H  0.3279724  0.4804831  0.1416965    0.00000       Uiso       1.00
      H168          H  0.3004791  0.5200760  0.1478252    0.00000       Uiso       1.00
      C257          C  0.3309415  0.3217832  0.1574841    0.00000       Uiso       1.00
      C258          C  0.3423817  0.3013983  0.1472906    0.00000       Uiso       1.00
      C259          C  0.3088762  0.3291476  0.1751708    0.00000       Uiso       1.00
      C260          C  0.2985500  0.3166282  0.1823812    0.00000       Uiso       1.00
      C261          C  0.3100674  0.2961081  0.1723327    0.00000       Uiso       1.00
      C262          C  0.3321775  0.2886933  0.1546503    0.00000       Uiso       1.00
      H169          H  0.3592048  0.2954170  0.1333967    0.00000       Uiso       1.00
      H170          H  0.3417411  0.2729229  0.1466178    0.00000       Uiso       1.00
      H171          H  0.2996435  0.3445529  0.1836305    0.00000       Uiso       1.00
      H172          H  0.2814180  0.3231747  0.1957327    0.00000       Uiso       1.00
      C263          C  0.4395098  0.3634420  0.0279067    0.00000       Uiso       1.00
      C264          C  0.4586488  0.3647010  0.0189575    0.00000       Uiso       1.00
      C265          C  0.4365095  0.3590688  0.0132137    0.00000       Uiso       1.00
      C266          C  0.4521303  0.3559715  0.9903712    0.00000       Uiso       1.00
      C267          C  0.4711821  0.3574527  0.9813641    0.00000       Uiso       1.00
      C268          C  0.4741839  0.3618749  0.9960515    0.00000       Uiso       1.00
      H173          H  0.4617121  0.3676265  0.0297931    0.00000       Uiso       1.00
      H174          H  0.4884240  0.3634150  0.9898412    0.00000       Uiso       1.00
      H175          H  0.4218761  0.3582868  0.0193900    0.00000       Uiso       1.00
      H176          H  0.4493535  0.3521945  0.9797917    0.00000       Uiso       1.00
      C269          C  0.3749874  0.3657631  0.1619681    0.00000       Uiso       1.00
      C270          C  0.3871456  0.3660703  0.1384290    0.00000       Uiso       1.00
      C271          C  0.4103351  0.3571180  0.1283429    0.00000       Uiso       1.00
      C272          C  0.4204496  0.3497477  0.1410969    0.00000       Uiso       1.00
      C273          C  0.4080435  0.3502333  0.1644905    0.00000       Uiso       1.00
      C274          C  0.3851644  0.3581239  0.1747327    0.00000       Uiso       1.00
      H177          H  0.3573306  0.3717489  0.1705004    0.00000       Uiso       1.00
      H178          H  0.4210923  0.3555034  0.1105484    0.00000       Uiso       1.00
      H179          H  0.4380887  0.3438483  0.1324911    0.00000       Uiso       1.00
      C275          C  0.3581274  0.4005095  0.1283894    0.00000       Uiso       1.00
      C276          C  0.3470376  0.4118911  0.1159344    0.00000       Uiso       1.00
      C277          C  0.3539868  0.4136046  0.1426225    0.00000       Uiso       1.00
      C278          C  0.3384841  0.4364650  0.1453723    0.00000       Uiso       1.00
      C279          C  0.3269954  0.4474528  0.1334620    0.00000       Uiso       1.00
      C280          C  0.3317307  0.4348247  0.1184780    0.00000       Uiso       1.00
      H180          H  0.3501674  0.4027733  0.1042671    0.00000       Uiso       1.00
      H181          H  0.3626505  0.4065669  0.1517573    0.00000       Uiso       1.00
      H182          H  0.3353592  0.4454915  0.1571084    0.00000       Uiso       1.00
      C281          C  0.3627529  0.3614514  0.1338058    0.00000       Uiso       1.00
      C282          C  0.3749218  0.3379120  0.1340917    0.00000       Uiso       1.00
      C283          C  0.3395629  0.3715295  0.1427669    0.00000       Uiso       1.00
      C284          C  0.3294575  0.3587689  0.1501258    0.00000       Uiso       1.00
      C285          C  0.3418737  0.3353757  0.1496193    0.00000       Uiso       1.00
      C286          C  0.3647539  0.3251406  0.1417194    0.00000       Uiso       1.00
      H183          H  0.3925798  0.3293850  0.1280983    0.00000       Uiso       1.00
      H184          H  0.3287986  0.3893225  0.1443972    0.00000       Uiso       1.00
      H185          H  0.3118171  0.3673695  0.1560328    0.00000       Uiso       1.00
      C287          C  0.3917513  0.3715217  0.0993756    0.00000       Uiso       1.00
      C288          C  0.4028309  0.3839864  0.0880053    0.00000       Uiso       1.00
      C289          C  0.3958917  0.3573010  0.0862677    0.00000       Uiso       1.00
      C290          C  0.4113853  0.3545716  0.0634048    0.00000       Uiso       1.00
      C291          C  0.4228644  0.3664911  0.0524278    0.00000       Uiso       1.00
      C292          C  0.4181288  0.3814633  0.0650695    0.00000       Uiso       1.00
      H186          H  0.3997003  0.3956451  0.0971337    0.00000       Uiso       1.00
      H187          H  0.3872346  0.3481604  0.0932970    0.00000       Uiso       1.00
      H188          H  0.4145109  0.3428441  0.0543677    0.00000       Uiso       1.00
       S29          S  0.3185161  0.4480131  0.1016665    0.00000       Uiso       1.00
       O85          O  0.3036492  0.4712275  0.1068403    0.00000       Uiso       1.00
       O86          O  0.3063195  0.4379796  0.1062491    0.00000       Uiso       1.00
       O87          O  0.3364412  0.4450016  0.0768489    0.00000       Uiso       1.00
      H189          H  0.3294457  0.4519848  0.0679205    0.00000       Uiso       1.00
       S30          S  0.3815991  0.2951221  0.1416854    0.00000       Uiso       1.00
       O88          O  0.3680792  0.2854192  0.1500352    0.00000       Uiso       1.00
       O89          O  0.3908107  0.2887213  0.1555246    0.00000       Uiso       1.00
       O90          O  0.4005922  0.2869402  0.1177484    0.00000       Uiso       1.00
      H190          H  0.4095404  0.2710198  0.1177176    0.00000       Uiso       1.00
       S31          S  0.4313307  0.3982857  0.0518964    0.00000       Uiso       1.00
       O91          O  0.4461895  0.3931328  0.0286773    0.00000       Uiso       1.00
       O92          O  0.4435340  0.3936933  0.0619259    0.00000       Uiso       1.00
       O93          O  0.4133964  0.4231009  0.0549301    0.00000       Uiso       1.00
      H191          H  0.4203852  0.4320351  0.0479550    0.00000       Uiso       1.00
       S32          S  0.3683326  0.3581310  0.2047511    0.00000       Uiso       1.00
       O94          O  0.3818606  0.3497725  0.2144466    0.00000       Uiso       1.00
       O95          O  0.3591301  0.3442860  0.2111395    0.00000       Uiso       1.00
       O96          O  0.3493324  0.3820606  0.2129546    0.00000       Uiso       1.00
      H192          H  0.3403914  0.3820772  0.2288750    0.00000       Uiso       1.00
      C293          C  0.0000556  0.1250009  0.6251121    0.00000       Uiso       1.00
      C294          C  0.1049093  0.1559799  0.4490015    0.00000       Uiso       1.00
      C295          C  0.0923386  0.1454735  0.4569533    0.00000       Uiso       1.00
      C296          C  0.0928867  0.1373337  0.4415122    0.00000       Uiso       1.00
      C297          C  0.1056197  0.1399222  0.4183943    0.00000       Uiso       1.00
      C298          C  0.1179896  0.1506717  0.4104427    0.00000       Uiso       1.00
      C299          C  0.1175683  0.1586794  0.4258784    0.00000       Uiso       1.00
      H193          H  0.1050942  0.1620663  0.4605162    0.00000       Uiso       1.00
      H194          H  0.1270903  0.1669237  0.4201234    0.00000       Uiso       1.00
      H195          H  0.1057467  0.1335401  0.4067844    0.00000       Uiso       1.00
      C300          C  0.0205034  0.1804135  0.7174538    0.00000       Uiso       1.00
      C301          C  0.0310166  0.1652928  0.7300156    0.00000       Uiso       1.00
      C302          C  0.0123533  0.2034425  0.7180188    0.00000       Uiso       1.00
      C303          C  0.0149383  0.2112400  0.7307600    0.00000       Uiso       1.00
      C304          C  0.0256946  0.1960772  0.7431211    0.00000       Uiso       1.00
      C305          C  0.0337126  0.1730586  0.7426828    0.00000       Uiso       1.00
      H196          H  0.0371109  0.1475096  0.7301873    0.00000       Uiso       1.00
      H197          H  0.0419623  0.1610511  0.7521977    0.00000       Uiso       1.00
      H198          H  0.0085482  0.2291023  0.7309000    0.00000       Uiso       1.00
      C306          C  0.0555429  0.9568236  0.6454343    0.00000       Uiso       1.00
      C307          C  0.0404258  0.9488626  0.6559337    0.00000       Uiso       1.00
      C308          C  0.0785789  0.9413899  0.6372808    0.00000       Uiso       1.00
      C309          C  0.0863868  0.9182697  0.6398486    0.00000       Uiso       1.00
      C310          C  0.0712274  0.9103085  0.6505910    0.00000       Uiso       1.00
      C311          C  0.0482019  0.9257370  0.6586125    0.00000       Uiso       1.00
      H199          H  0.0226375  0.9603718  0.6620303    0.00000       Uiso       1.00
      H200          H  0.0361969  0.9199747  0.6668516    0.00000       Uiso       1.00
      H201          H  0.1042542  0.9066655  0.6334562    0.00000       Uiso       1.00
      C312          C  0.8318369  0.2172930  0.6806071    0.00000       Uiso       1.00
      C313          C  0.8238702  0.2298684  0.6654975    0.00000       Uiso       1.00
      C314          C  0.8164030  0.2178374  0.7036365    0.00000       Uiso       1.00
      C315          C  0.7932770  0.2305716  0.7114454    0.00000       Uiso       1.00
      C316          C  0.7853103  0.2429462  0.6962937    0.00000       Uiso       1.00
      C317          C  0.8007390  0.2425286  0.6732748    0.00000       Uiso       1.00
      H202          H  0.8353794  0.2300559  0.6477146    0.00000       Uiso       1.00
      H203          H  0.7949724  0.2520542  0.6612756    0.00000       Uiso       1.00
      H204          H  0.7816727  0.2306957  0.7293079    0.00000       Uiso       1.00
       S33          S  0.9985219  0.2231685  0.7024462    0.00000       Uiso       1.00
       O97          O  0.9919350  0.2451311  0.7057641    0.00000       Uiso       1.00
       O98          O  0.9792770  0.2222084  0.7099761    0.00000       Uiso       1.00
       O99          O  0.0145824  0.2172986  0.6775102    0.00000       Uiso       1.00
      H205          H  0.0072552  0.2277489  0.6692396    0.00000       Uiso       1.00
       S34          S  0.0983006  0.9510767  0.6234670    0.00000       Uiso       1.00
      O100          O  0.1202716  0.9323930  0.6168731    0.00000       Uiso       1.00
      O101          O  0.0928430  0.9647654  0.6383918    0.00000       Uiso       1.00
      O102          O  0.0972611  0.9647275  0.6027539    0.00000       Uiso       1.00
      H206          H  0.1077109  0.9698793  0.5954224    0.00000       Uiso       1.00
       S35          S  0.8260967  0.2022472  0.7233486    0.00000       Uiso       1.00
      O103          O  0.8074115  0.2055455  0.7453141    0.00000       Uiso       1.00
      O104          O  0.8387679  0.2097780  0.7223952    0.00000       Uiso       1.00
      O105          O  0.8408507  0.1773165  0.7174565    0.00000       Uiso       1.00
      H207          H  0.8460066  0.1690366  0.7278994    0.00000       Uiso       1.00
       S36          S  0.0773026  0.1235112  0.4511866    0.00000       Uiso       1.00
      O106          O  0.0806039  0.1169340  0.4324970    0.00000       Uiso       1.00
      O107          O  0.0541460  0.1384238  0.4648887    0.00000       Uiso       1.00
      O108          O  0.0854197  0.1027859  0.4648190    0.00000       Uiso       1.00
      H208          H  0.0771553  0.0954499  0.4699641    0.00000       Uiso       1.00
      C318          C  0.0735211  0.1352825  0.5190787    0.00000       Uiso       1.00
      C319          C  0.0531265  0.1365337  0.5280291    0.00000       Uiso       1.00
      C320          C  0.0457443  0.1409202  0.5133401    0.00000       Uiso       1.00
      C321          C  0.0582559  0.1440393  0.4905005    0.00000       Uiso       1.00
      C322          C  0.0787856  0.1425659  0.4814920    0.00000       Uiso       1.00
      C323          C  0.0862182  0.1381305  0.4961754    0.00000       Uiso       1.00
      H209          H  0.0795161  0.1323472  0.5299118    0.00000       Uiso       1.00
      H210          H  0.1019965  0.1365958  0.4899637    0.00000       Uiso       1.00
      H211          H  0.0303312  0.1416969  0.5195171    0.00000       Uiso       1.00
      H212          H  0.0516958  0.1478258  0.4799244    0.00000       Uiso       1.00
      C324          C  0.0115741  0.1574853  0.6782171    0.00000       Uiso       1.00
      C325          C  0.0103272  0.1472919  0.6986021    0.00000       Uiso       1.00
      C326          C  0.0159528  0.1751719  0.6708526    0.00000       Uiso       1.00
      C327          C  0.0190686  0.1823823  0.6833721    0.00000       Uiso       1.00
      C328          C  0.0175995  0.1723339  0.7038922    0.00000       Uiso       1.00
      C329          C  0.0131718  0.1546515  0.7113071    0.00000       Uiso       1.00
      H213          H  0.0073979  0.1333980  0.7045834    0.00000       Uiso       1.00
      H214          H  0.0116406  0.1466191  0.7270775    0.00000       Uiso       1.00
      H215          H  0.0167259  0.1836315  0.6554474    0.00000       Uiso       1.00
      H216          H  0.0228491  0.1957337  0.6768256    0.00000       Uiso       1.00
      C330          C  0.0325832  0.0279077  0.6365584    0.00000       Uiso       1.00
      C331          C  0.0223937  0.0189585  0.6352990    0.00000       Uiso       1.00
      C332          C  0.0502765  0.0132148  0.6409318    0.00000       Uiso       1.00
      C333          C  0.0574969  0.9903722  0.6440303    0.00000       Uiso       1.00
      C334          C  0.0474524  0.9813650  0.6425488    0.00000       Uiso       1.00
      C335          C  0.0297634  0.9960523  0.6381264    0.00000       Uiso       1.00
      H217          H  0.0084949  0.0297940  0.6323734    0.00000       Uiso       1.00
      H218          H  0.0217336  0.9898420  0.6365862    0.00000       Uiso       1.00
      H219          H  0.0587334  0.0193912  0.6417140    0.00000       Uiso       1.00
      H220          H  0.0708530  0.9797927  0.6478073    0.00000       Uiso       1.00
      C336          C  0.9029384  0.1780769  0.6576439    0.00000       Uiso       1.00
      C337          C  0.8939801  0.1984708  0.6474685    0.00000       Uiso       1.00
      C338          C  0.8882487  0.1706968  0.6753241    0.00000       Uiso       1.00
      C339          C  0.8654007  0.1832098  0.6825457    0.00000       Uiso       1.00
      C340          C  0.8563845  0.2037387  0.6725153    0.00000       Uiso       1.00
      C341          C  0.8710685  0.2111692  0.6548394    0.00000       Uiso       1.00
      H221          H  0.9048131  0.2044644  0.6335797    0.00000       Uiso       1.00
      H222          H  0.8648511  0.2269467  0.6468209    0.00000       Uiso       1.00
      H223          H  0.8944319  0.1552841  0.6837702    0.00000       Uiso       1.00
      H224          H  0.8548241  0.1766514  0.6958914    0.00000       Uiso       1.00
      C342          C  0.0370279  0.1159354  0.5881093    0.00000       Uiso       1.00
      C343          C  0.0134831  0.1283903  0.5994908    0.00000       Uiso       1.00
      C344          C  0.0033907  0.1426230  0.5863956    0.00000       Uiso       1.00
      C345          C  0.0161435  0.1453728  0.5635353    0.00000       Uiso       1.00
      C346          C  0.0395424  0.1334628  0.5525475    0.00000       Uiso       1.00
      C347          C  0.0497913  0.1184789  0.5651757    0.00000       Uiso       1.00
      H225          H  0.0455653  0.1042682  0.5972272    0.00000       Uiso       1.00
      H226          H  0.9855920  0.1517577  0.5934331    0.00000       Uiso       1.00
      H227          H  0.0075324  0.1571087  0.5545087    0.00000       Uiso       1.00
      C348          C  0.0034411  0.1338069  0.6385489    0.00000       Uiso       1.00
      C349          C  0.9909859  0.1340931  0.6620883    0.00000       Uiso       1.00
      C350          C  0.0176702  0.1427677  0.6284709    0.00000       Uiso       1.00
      C351          C  0.0204167  0.1501267  0.6412315    0.00000       Uiso       1.00
      C352          C  0.0085066  0.1496205  0.6646246    0.00000       Uiso       1.00
      C353          C  0.9935260  0.1417209  0.6748598    0.00000       Uiso       1.00
      H228          H  0.9793212  0.1280999  0.6706153    0.00000       Uiso       1.00
      H229          H  0.0268043  0.1443979  0.6106778    0.00000       Uiso       1.00
      H230          H  0.0321501  0.1560335  0.6326309    0.00000       Uiso       1.00
      C354          C  0.0088729  0.0993766  0.6284787    0.00000       Uiso       1.00
      C355          C  0.0091639  0.0880063  0.6160138    0.00000       Uiso       1.00
      C356          C  0.0178398  0.0862688  0.6426998    0.00000       Uiso       1.00
      C357          C  0.0252090  0.0634060  0.6454293    0.00000       Uiso       1.00
      C358          C  0.0247075  0.0524289  0.6335093    0.00000       Uiso       1.00
      C359          C  0.0168019  0.0650704  0.6185369    0.00000       Uiso       1.00
      H231          H  0.0031664  0.0971345  0.6043548    0.00000       Uiso       1.00
      H232          H  0.0194670  0.0932983  0.6518408    0.00000       Uiso       1.00
      H233          H  0.0311201  0.0543690  0.6571571    0.00000       Uiso       1.00
      C360          C  0.9744252  0.1384299  0.6339300    0.00000       Uiso       1.00
      C361          C  0.9630443  0.1619691  0.6342366    0.00000       Uiso       1.00
      C362          C  0.9613217  0.1283438  0.6428827    0.00000       Uiso       1.00
      C363          C  0.9384532  0.1410979  0.6502531    0.00000       Uiso       1.00
      C364          C  0.9274657  0.1644915  0.6497670    0.00000       Uiso       1.00
      C365          C  0.9401028  0.1747337  0.6418758    0.00000       Uiso       1.00
      H234          H  0.9721689  0.1705014  0.6282506    0.00000       Uiso       1.00
      H235          H  0.9683590  0.1105493  0.6444976    0.00000       Uiso       1.00
      H236          H  0.9294199  0.1324919  0.6561528    0.00000       Uiso       1.00
       S37          S  0.9767146  0.1416873  0.7048782    0.00000       Uiso       1.00
      O109          O  0.9818846  0.1500372  0.7145811    0.00000       Uiso       1.00
      O110          O  0.9813071  0.1194593  0.7124743    0.00000       Uiso       1.00
      O111          O  0.9518902  0.1565898  0.7117729    0.00000       Uiso       1.00
      H237          H  0.9429618  0.1565736  0.7276928    0.00000       Uiso       1.00
       S38          S  0.0167738  0.0518971  0.6017140    0.00000       Uiso       1.00
      O112          O  0.0251340  0.0286780  0.6068669    0.00000       Uiso       1.00
      O113          O  0.0306118  0.0547140  0.5786718    0.00000       Uiso       1.00
      O114          O  0.9928318  0.0626975  0.6066568    0.00000       Uiso       1.00
      H238          H  0.9928041  0.0557253  0.5977332    0.00000       Uiso       1.00
       S39          S  0.9269162  0.2047521  0.6418680    0.00000       Uiso       1.00
      O115          O  0.9036928  0.2144476  0.6502265    0.00000       Uiso       1.00
      O116          O  0.9369423  0.2123675  0.6196464    0.00000       Uiso       1.00
      O117          O  0.9299468  0.2116344  0.6567761    0.00000       Uiso       1.00
      H239          H  0.9229647  0.2275543  0.6567735    0.00000       Uiso       1.00
       S40          S  0.0798173  0.1016677  0.5519873    0.00000       Uiso       1.00
      O118          O  0.0895104  0.1068414  0.5287729    0.00000       Uiso       1.00
      O119          O  0.0862160  0.0786230  0.5547837    0.00000       Uiso       1.00
      O120          O  0.0880185  0.1066008  0.5627921    0.00000       Uiso       1.00
      H240          H  0.1039430  0.0976834  0.5558119    0.00000       Uiso       1.00
      C366          C  0.2499989  0.0000018  0.9995530    0.00000       Uiso       1.00
      C367          C  0.2191463  0.0711789  0.1353707    0.00000       Uiso       1.00
      C368          C  0.2296436  0.0758014  0.1123013    0.00000       Uiso       1.00
      C369          C  0.2377905  0.0906874  0.1047160    0.00000       Uiso       1.00
      C370          C  0.2352180  0.1010620  0.1200365    0.00000       Uiso       1.00
      C371          C  0.2244776  0.0966402  0.1431484    0.00000       Uiso       1.00
      C372          C  0.2164629  0.0816327  0.1507283    0.00000       Uiso       1.00
      H241          H  0.2130549  0.0594845  0.1416366    0.00000       Uiso       1.00
      H242          H  0.2082254  0.0778632  0.1684885    0.00000       Uiso       1.00
      H243          H  0.2416054  0.1125398  0.1137864    0.00000       Uiso       1.00
      C373          C  0.1945550  0.8872522  0.0753538    0.00000       Uiso       1.00
      C374          C  0.2096748  0.8641827  0.0707313    0.00000       Uiso       1.00
      C375          C  0.1715220  0.8948374  0.0902398    0.00000       Uiso       1.00
      C376          C  0.1637200  0.8795169  0.1006143    0.00000       Uiso       1.00
      C377          C  0.1788822  0.8564051  0.0961926    0.00000       Uiso       1.00
      C378          C  0.2019045  0.8488252  0.0811850    0.00000       Uiso       1.00
      H244          H  0.2274606  0.8579168  0.0590368    0.00000       Uiso       1.00
      H245          H  0.2139115  0.8310649  0.0774155    0.00000       Uiso       1.00
      H246          H  0.1458548  0.8857670  0.1120921    0.00000       Uiso       1.00
      C379          C  0.4181916  0.9242008  0.8868048    0.00000       Uiso       1.00
      C380          C  0.4261412  0.9288233  0.8637353    0.00000       Uiso       1.00
      C381          C  0.4336392  0.9093148  0.8943900    0.00000       Uiso       1.00
      C382          C  0.4567617  0.8989402  0.8790696    0.00000       Uiso       1.00
      C383          C  0.4647115  0.9033620  0.8559577    0.00000       Uiso       1.00
      C384          C  0.4492691  0.9183695  0.8483778    0.00000       Uiso       1.00
      H247          H  0.4146212  0.9405177  0.8574694    0.00000       Uiso       1.00
      H248          H  0.4550223  0.9221390  0.8306175    0.00000       Uiso       1.00
      H249          H  0.4683769  0.8874624  0.8853196    0.00000       Uiso       1.00
      C385          C  0.1576069  0.1127499  0.9237521    0.00000       Uiso       1.00
      C386          C  0.1450346  0.1358194  0.9283746    0.00000       Uiso       1.00
      C387          C  0.1570452  0.1051646  0.9088661    0.00000       Uiso       1.00
      C388          C  0.1442972  0.1204851  0.8984916    0.00000       Uiso       1.00
      C389          C  0.1319258  0.1435970  0.9029133    0.00000       Uiso       1.00
      C390          C  0.1323606  0.1511769  0.9179209    0.00000       Uiso       1.00
      H250          H  0.1448602  0.1420853  0.9400691    0.00000       Uiso       1.00
      H251          H  0.1228378  0.1689372  0.9216904    0.00000       Uiso       1.00
      H252          H  0.1441599  0.1142350  0.8870137    0.00000       Uiso       1.00
       S41          S  0.1517968  0.9242344  0.0961538    0.00000       Uiso       1.00
      O121          O  0.1298298  0.9275049  0.1115338    0.00000       Uiso       1.00
      O122          O  0.1527450  0.9359527  0.0759626    0.00000       Uiso       1.00
      O123          O  0.1576850  0.9330989  0.1063411    0.00000       Uiso       1.00
      H253          H  0.1472351  0.9486929  0.1094744    0.00000       Uiso       1.00
       S42          S  0.4239674  0.9034008  0.9237871    0.00000       Uiso       1.00
      O124          O  0.4426639  0.8880208  0.9270576    0.00000       Uiso       1.00
      O125          O  0.4102695  0.8939402  0.9320164    0.00000       Uiso       1.00
      O126          O  0.4103253  0.9251441  0.9364086    0.00000       Uiso       1.00
      H254          H  0.4051816  0.9220226  0.9520040    0.00000       Uiso       1.00
       S43          S  0.1726310  0.0757677  0.9029521    0.00000       Uiso       1.00
      O127          O  0.1693146  0.0724971  0.8875721    0.00000       Uiso       1.00
      O128          O  0.1651063  0.0640493  0.9231432    0.00000       Uiso       1.00
      O129          O  0.1975710  0.0669032  0.8927649    0.00000       Uiso       1.00
      H255          H  0.2058485  0.0513092  0.8896315    0.00000       Uiso       1.00
       S44          S  0.2516018  0.0966014  0.0753190    0.00000       Uiso       1.00
      O130          O  0.2581887  0.1119814  0.0720485    0.00000       Uiso       1.00
      O131          O  0.2366727  0.1060620  0.0670897    0.00000       Uiso       1.00
      O132          O  0.2723246  0.0748581  0.0626975    0.00000       Uiso       1.00
      H256          H  0.2796547  0.0779796  0.0471021    0.00000       Uiso       1.00
      C391          C  0.2397985  0.0325211  0.0832818    0.00000       Uiso       1.00
      C392          C  0.2385342  0.0439693  0.0641527    0.00000       Uiso       1.00
      C393          C  0.2341509  0.0660339  0.0611702    0.00000       Uiso       1.00
      C394          C  0.2310476  0.0763518  0.0767999    0.00000       Uiso       1.00
      C395          C  0.2325342  0.0648265  0.0958419    0.00000       Uiso       1.00
      C396          C  0.2369664  0.0427171  0.0988258    0.00000       Uiso       1.00
      H257          H  0.2427317  0.0156979  0.0863313    0.00000       Uiso       1.00
      H258          H  0.2385109  0.0331479  0.1130580    0.00000       Uiso       1.00
      H259          H  0.2333646  0.0752728  0.0465448    0.00000       Uiso       1.00
      H260          H  0.2272629  0.0934833  0.0740368    0.00000       Uiso       1.00
      C397          C  0.2174967  0.9354006  0.0435218    0.00000       Uiso       1.00
      C398          C  0.2276804  0.9162716  0.0320735    0.00000       Uiso       1.00
      C399          C  0.1998154  0.9383830  0.0655865    0.00000       Uiso       1.00
      C400          C  0.1926007  0.9227534  0.0759043    0.00000       Uiso       1.00
      C401          C  0.2026393  0.9037115  0.0643790    0.00000       Uiso       1.00
      C402          C  0.2203164  0.9007277  0.0422695    0.00000       Uiso       1.00
      H261          H  0.2415704  0.9132221  0.0152503    0.00000       Uiso       1.00
      H262          H  0.2283411  0.8864955  0.0327002    0.00000       Uiso       1.00
      H263          H  0.1913630  0.9530084  0.0748254    0.00000       Uiso       1.00
      H264          H  0.1792539  0.9255165  0.0930358    0.00000       Uiso       1.00
      C403          C  0.3471013  0.9560328  0.9349532    0.00000       Uiso       1.00
      C404          C  0.3560466  0.9674810  0.9158241    0.00000       Uiso       1.00
      C405          C  0.3618003  0.9339681  0.9379357    0.00000       Uiso       1.00
      C406          C  0.3846445  0.9236503  0.9223061    0.00000       Uiso       1.00
      C407          C  0.3936478  0.9351757  0.9032642    0.00000       Uiso       1.00
      C408          C  0.3789545  0.9572850  0.9002802    0.00000       Uiso       1.00
      H265          H  0.3452061  0.9843042  0.9127746    0.00000       Uiso       1.00
      H266          H  0.3851620  0.9668543  0.8860480    0.00000       Uiso       1.00
      H267          H  0.3556272  0.9247293  0.9525611    0.00000       Uiso       1.00
      H268          H  0.3952282  0.9065189  0.9250692    0.00000       Uiso       1.00
      C409          C  0.1968650  0.0646014  0.9555842    0.00000       Uiso       1.00
      C410          C  0.1764716  0.0837307  0.9670323    0.00000       Uiso       1.00
      C411          C  0.2042306  0.0616188  0.9335195    0.00000       Uiso       1.00
      C412          C  0.1917042  0.0772485  0.9232018    0.00000       Uiso       1.00
      C413          C  0.1711758  0.0962905  0.9347270    0.00000       Uiso       1.00
      C414          C  0.1637596  0.0992746  0.9568363    0.00000       Uiso       1.00
      H269          H  0.1704890  0.0867802  0.9838554    0.00000       Uiso       1.00
      H270          H  0.1479830  0.1135069  0.9664056    0.00000       Uiso       1.00
      H271          H  0.2196423  0.0469933  0.9242808    0.00000       Uiso       1.00
      H272          H  0.1982520  0.0744853  0.9060702    0.00000       Uiso       1.00
      C415          C  0.2590985  0.0000146  0.0274433    0.00000       Uiso       1.00
      C416          C  0.2466280  0.0121829  0.0163694    0.00000       Uiso       1.00
      C417          C  0.2323966  0.0353646  0.0205246    0.00000       Uiso       1.00
      C418          C  0.2296627  0.0454620  0.0360260    0.00000       Uiso       1.00
      C419          C  0.2415881  0.0330459  0.0474989    0.00000       Uiso       1.00
      C420          C  0.2565709  0.0101746  0.0427491    0.00000       Uiso       1.00
      H273          H  0.2707652  0.9823632  0.0243018    0.00000       Uiso       1.00
      H274          H  0.2232509  0.0461288  0.0118734    0.00000       Uiso       1.00
      H275          H  0.2179269  0.0630956  0.0391625    0.00000       Uiso       1.00
      C421          C  0.2411892  0.9831840  0.0117355    0.00000       Uiso       1.00
      C422          C  0.2408859  0.9721115  0.9995671    0.00000       Uiso       1.00
      C423          C  0.2322392  0.9790285  0.0349171    0.00000       Uiso       1.00
      C424          C  0.2248758  0.9635270  0.0450144    0.00000       Uiso       1.00
      C425          C  0.2253661  0.9520544  0.0325984    0.00000       Uiso       1.00
      C426          C  0.2332545  0.9568043  0.0097272    0.00000       Uiso       1.00
      H276          H  0.2468701  0.9752530  0.9819158    0.00000       Uiso       1.00
      H277          H  0.2306211  0.9876795  0.0456812    0.00000       Uiso       1.00
      H278          H  0.2189781  0.9603904  0.0626481    0.00000       Uiso       1.00
      C427          C  0.2756253  0.9878192  0.9827365    0.00000       Uiso       1.00
      C428          C  0.2870014  0.9999875  0.9716625    0.00000       Uiso       1.00
      C429          C  0.2887308  0.9646375  0.9785813    0.00000       Uiso       1.00
      C430          C  0.3115957  0.9545402  0.9630799    0.00000       Uiso       1.00
      C431          C  0.3225780  0.9669562  0.9516069    0.00000       Uiso       1.00
      C432          C  0.3099397  0.9898276  0.9563566    0.00000       Uiso       1.00
      H279          H  0.2778760  0.0176390  0.9748039    0.00000       Uiso       1.00
      H280          H  0.2816981  0.9538734  0.9872324    0.00000       Uiso       1.00
      H281          H  0.3206302  0.9369065  0.9599434    0.00000       Uiso       1.00
      C433          C  0.2365545  0.0168181  0.9873706    0.00000       Uiso       1.00
      C434          C  0.2130101  0.0278924  0.9995390    0.00000       Uiso       1.00
      C435          C  0.2466308  0.0209729  0.9641887    0.00000       Uiso       1.00
      C436          C  0.2338632  0.0364743  0.9540914    0.00000       Uiso       1.00
      C437          C  0.2104649  0.0479476  0.9665076    0.00000       Uiso       1.00
      C438          C  0.2002319  0.0431982  0.9893790    0.00000       Uiso       1.00
      H282          H  0.2044856  0.0247500  0.0171904    0.00000       Uiso       1.00
      H283          H  0.2644277  0.0123213  0.9534245    0.00000       Uiso       1.00
      H284          H  0.2424625  0.0396104  0.9364576    0.00000       Uiso       1.00
       S45          S  0.2332662  0.9436120  0.9928836    0.00000       Uiso       1.00
      O133          O  0.2249153  0.9287421  0.0063946    0.00000       Uiso       1.00
      O134          O  0.2554929  0.9314268  0.9752406    0.00000       Uiso       1.00
      O135          O  0.2183495  0.9615446  0.9829810    0.00000       Uiso       1.00
      H285          H  0.2183547  0.9545602  0.9740371    0.00000       Uiso       1.00
       S46          S  0.3231207  0.0066713  0.9431628    0.00000       Uiso       1.00
      O136          O  0.3463409  0.9931602  0.9282942    0.00000       Uiso       1.00
      O137          O  0.3203202  0.0158652  0.9598156    0.00000       Uiso       1.00
      O138          O  0.3123074  0.0256725  0.9300406    0.00000       Uiso       1.00
      H286          H  0.3192835  0.0346197  0.9230447    0.00000       Uiso       1.00
       S47          S  0.1702085  0.0563913  0.0062229    0.00000       Uiso       1.00
      O139          O  0.1604979  0.0712611  0.9927118    0.00000       Uiso       1.00
      O140          O  0.1626075  0.0685768  0.0238653    0.00000       Uiso       1.00
      O141          O  0.1633210  0.0384593  0.0161263    0.00000       Uiso       1.00
      H287          H  0.1473979  0.0454440  0.0250703    0.00000       Uiso       1.00
       S48          S  0.2734012  0.9933308  0.0559428    0.00000       Uiso       1.00
      O142          O  0.2682424  0.0068420  0.0708114    0.00000       Uiso       1.00
      O143          O  0.2964474  0.9841370  0.0392899    0.00000       Uiso       1.00
      O144          O  0.2684669  0.9743296  0.0690650    0.00000       Uiso       1.00
      H288          H  0.2773946  0.9653824  0.0760609    0.00000       Uiso       1.00
      C439          C  0.6517217  0.6204596  0.3082202    0.00000       Uiso       1.00
      C440          C  0.6641059  0.6253589  0.2860298    0.00000       Uiso       1.00
      C441          C  0.6664801  0.6187210  0.2684043    0.00000       Uiso       1.00
      C442          C  0.6797642  0.6229392  0.2463408    0.00000       Uiso       1.00
      C443          C  0.6921761  0.6325943  0.2412643    0.00000       Uiso       1.00
      C444          C  0.6898152  0.6389151  0.2591951    0.00000       Uiso       1.00
      C445          C  0.6746280  0.6370898  0.2815168    0.00000       Uiso       1.00
      O145          O  0.6412397  0.6083223  0.3154637    0.00000       Uiso       1.00
      H289          H  0.7008224  0.6440510  0.2558322    0.00000       Uiso       1.00
      C446          C  0.7103234  0.7229984  0.2944375    0.00000       Uiso       1.00
      C447          C  0.7005218  0.7106199  0.2993464    0.00000       Uiso       1.00
      C448          C  0.6853271  0.7082595  0.3212535    0.00000       Uiso       1.00
      C449          C  0.6763800  0.6950848  0.3258824    0.00000       Uiso       1.00
      C450          C  0.6835393  0.6827824  0.3089001    0.00000       Uiso       1.00
      C451          C  0.6991489  0.6850828  0.2869990    0.00000       Uiso       1.00
      C452          C  0.7064312  0.7001591  0.2816469    0.00000       Uiso       1.00
      O146          O  0.7069651  0.7334909  0.3098922    0.00000       Uiso       1.00
      H290          H  0.6803054  0.7168443  0.3347023    0.00000       Uiso       1.00
      H291          H  0.6639966  0.6945303  0.3428518    0.00000       Uiso       1.00
      H292          H  0.7066845  0.6741415  0.2742094    0.00000       Uiso       1.00
      C453          C  0.7549356  0.6645216  0.1471914    0.00000       Uiso       1.00
      C454          C  0.7500653  0.6743068  0.1644489    0.00000       Uiso       1.00
      C455          C  0.7567974  0.6894921  0.1600847    0.00000       Uiso       1.00
      C456          C  0.7525092  0.6984294  0.1775606    0.00000       Uiso       1.00
      C457          C  0.7426890  0.6912695  0.1996844    0.00000       Uiso       1.00
      C458          C  0.7363672  0.6756787  0.2036819    0.00000       Uiso       1.00
      C459          C  0.7382757  0.6684125  0.1866818    0.00000       Uiso       1.00
      O147          O  0.7669777  0.6679925  0.1246192    0.00000       Uiso       1.00
      H293          H  0.7652182  0.6945001  0.1430675    0.00000       Uiso       1.00
      H294          H  0.7571177  0.7107990  0.1735068    0.00000       Uiso       1.00
      H295          H  0.7311093  0.6681222  0.2198623    0.00000       Uiso       1.00
      C460          C  0.7484147  0.6495155  0.1514254    0.00000       Uiso       1.00
      C461          C  0.7358494  0.6440611  0.1732499    0.00000       Uiso       1.00
      C462          C  0.7291226  0.6288403  0.1776774    0.00000       Uiso       1.00
      C463          C  0.7157605  0.6244264  0.1996032    0.00000       Uiso       1.00
      C464          C  0.7075720  0.6361848  0.2175860    0.00000       Uiso       1.00
      C465          C  0.7142563  0.6516659  0.2128093    0.00000       Uiso       1.00
      C466          C  0.7296889  0.6545111  0.1911325    0.00000       Uiso       1.00
      O148          O  0.7550170  0.6416008  0.1321119    0.00000       Uiso       1.00
      H296          H  0.7064030  0.6625317  0.2258104    0.00000       Uiso       1.00
      C467          C  0.7253057  0.7252748  0.2729185    0.00000       Uiso       1.00
      C468          C  0.7307559  0.7160196  0.2549142    0.00000       Uiso       1.00
      C469          C  0.7459683  0.7183770  0.2330176    0.00000       Uiso       1.00
      C470          C  0.7505409  0.7097017  0.2151780    0.00000       Uiso       1.00
      C471          C  0.7389070  0.6997594  0.2186946    0.00000       Uiso       1.00
      C472          C  0.7233562  0.6979010  0.2408419    0.00000       Uiso       1.00
      C473          C  0.7203711  0.7042562  0.2591588    0.00000       Uiso       1.00
      O149          O  0.7333508  0.7379076  0.2714898    0.00000       Uiso       1.00
      H297          H  0.7544174  0.7267990  0.2298679    0.00000       Uiso       1.00
      H298          H  0.7631012  0.7110288  0.1986928    0.00000       Uiso       1.00
      H299          H  0.7125611  0.6926519  0.2438261    0.00000       Uiso       1.00
      C474          C  0.6495001  0.6269804  0.3254650    0.00000       Uiso       1.00
      C475          C  0.6587613  0.6395227  0.3216687    0.00000       Uiso       1.00
      C476          C  0.6564149  0.6461914  0.3392429    0.00000       Uiso       1.00
      C477          C  0.6650932  0.6594520  0.3351607    0.00000       Uiso       1.00
      C478          C  0.6750370  0.6675679  0.3135946    0.00000       Uiso       1.00
      C479          C  0.6768935  0.6609710  0.2961828    0.00000       Uiso       1.00
      C480          C  0.6705251  0.6456500  0.2995463    0.00000       Uiso       1.00
      O150          O  0.6369433  0.6203289  0.3461704    0.00000       Uiso       1.00
      H300          H  0.6479931  0.6408768  0.3560959    0.00000       Uiso       1.00
      H301          H  0.6637646  0.6633629  0.3490556    0.00000       Uiso       1.00
      H302          H  0.6821432  0.6687577  0.2801337    0.00000       Uiso       1.00
        B1          B  0.6319078  0.6084064  0.3395164    0.00000       Uiso       1.00
        B2          B  0.7216322  0.7429597  0.2950983    0.00000       Uiso       1.00
        B3          B  0.7668036  0.6533785  0.1152673    0.00000       Uiso       1.00
      H303          H  0.6579171  0.6104090  0.2716797    0.00000       Uiso       1.00
      H304          H  0.6803511  0.6183227  0.2333915    0.00000       Uiso       1.00
      H305          H  0.7343479  0.6201929  0.1641823    0.00000       Uiso       1.00
      H306          H  0.7117731  0.6119089  0.2022144    0.00000       Uiso       1.00
      C481          C  0.5804008  0.3795417  0.6917800    0.00000       Uiso       1.00
      C482          C  0.5754938  0.3746423  0.7139704    0.00000       Uiso       1.00
      C483          C  0.5536046  0.3812802  0.7315958    0.00000       Uiso       1.00
      C484          C  0.5490435  0.3770621  0.7536592    0.00000       Uiso       1.00
      C485          C  0.5660339  0.3674069  0.7587358    0.00000       Uiso       1.00
      C486          C  0.5879246  0.3610862  0.7408051    0.00000       Uiso       1.00
      C487          C  0.5932340  0.3629114  0.7184834    0.00000       Uiso       1.00
      O151          O  0.5650250  0.3916789  0.6845364    0.00000       Uiso       1.00
      H307          H  0.6007048  0.3559503  0.7441680    0.00000       Uiso       1.00
      C488          C  0.7277585  0.2770028  0.7055628    0.00000       Uiso       1.00
      C489          C  0.7104873  0.2893813  0.7006538    0.00000       Uiso       1.00
      C490          C  0.7148392  0.2917418  0.6787467    0.00000       Uiso       1.00
      C491          C  0.6973464  0.3049165  0.6741179    0.00000       Uiso       1.00
      C492          C  0.6752210  0.3172190  0.6911001    0.00000       Uiso       1.00
      C493          C  0.6712298  0.3149185  0.7130013    0.00000       Uiso       1.00
      C494          C  0.6882364  0.2998422  0.7183533    0.00000       Uiso       1.00
      O152          O  0.7503474  0.2665104  0.6901081    0.00000       Uiso       1.00
      H308          H  0.7318512  0.2831570  0.6652979    0.00000       Uiso       1.00
      H309          H  0.7013780  0.3054709  0.6571484    0.00000       Uiso       1.00
      H310          H  0.6550346  0.3258598  0.7257907    0.00000       Uiso       1.00
      C495          C  0.5666479  0.3354796  0.8528087    0.00000       Uiso       1.00
      C496          C  0.5888202  0.3256944  0.8355513    0.00000       Uiso       1.00
      C497          C  0.6063733  0.3105092  0.8399155    0.00000       Uiso       1.00
      C498          C  0.6284983  0.3015719  0.8224397    0.00000       Uiso       1.00
      C499          C  0.6336421  0.3087317  0.8003157    0.00000       Uiso       1.00
      C500          C  0.6157269  0.3243226  0.7963184    0.00000       Uiso       1.00
      C501          C  0.5933691  0.3315888  0.8133184    0.00000       Uiso       1.00
      O153          O  0.5595884  0.3320088  0.8753810    0.00000       Uiso       1.00
      H311          H  0.6027850  0.3055011  0.8569327    0.00000       Uiso       1.00
      H312          H  0.6414226  0.2892023  0.8264934    0.00000       Uiso       1.00
      H313          H  0.6190930  0.3318791  0.7801379    0.00000       Uiso       1.00
      C502          C  0.5493547  0.3504857  0.8485748    0.00000       Uiso       1.00
      C503          C  0.5531596  0.3559401  0.8267503    0.00000       Uiso       1.00
      C504          C  0.5356395  0.3711610  0.8223228    0.00000       Uiso       1.00
      C505          C  0.5397893  0.3755749  0.8003969    0.00000       Uiso       1.00
      C506          C  0.5613421  0.3638164  0.7824141    0.00000       Uiso       1.00
      C507          C  0.5787306  0.3483354  0.7871909    0.00000       Uiso       1.00
      C508          C  0.5753316  0.3454902  0.8088677    0.00000       Uiso       1.00
      O154          O  0.5287289  0.3584004  0.8678883    0.00000       Uiso       1.00
      H314          H  0.5947442  0.3374696  0.7741898    0.00000       Uiso       1.00
      C509          C  0.7234982  0.2747265  0.7270818    0.00000       Uiso       1.00
      C510          C  0.7016888  0.2839818  0.7450861    0.00000       Uiso       1.00
      C511          C  0.6973622  0.2816243  0.7669826    0.00000       Uiso       1.00
      C512          C  0.6754197  0.2902996  0.7848222    0.00000       Uiso       1.00
      C513          C  0.6573601  0.3002418  0.7813057    0.00000       Uiso       1.00
      C514          C  0.6620983  0.3021003  0.7591583    0.00000       Uiso       1.00
      C515          C  0.6837853  0.2957451  0.7408414    0.00000       Uiso       1.00
      O155          O  0.7427475  0.2620937  0.7285104    0.00000       Uiso       1.00
      H315          H  0.7110835  0.2732023  0.7701324    0.00000       Uiso       1.00
      H316          H  0.6728218  0.2889725  0.8013075    0.00000       Uiso       1.00
      H317          H  0.6490381  0.3073494  0.7561741    0.00000       Uiso       1.00
      C516          C  0.6019448  0.3730208  0.6745351    0.00000       Uiso       1.00
      C517          C  0.6199519  0.3604786  0.6783315    0.00000       Uiso       1.00
      C518          C  0.6418486  0.3538098  0.6607572    0.00000       Uiso       1.00
      C519          C  0.6597051  0.3405493  0.6648395    0.00000       Uiso       1.00
      C520          C  0.6561987  0.3324334  0.6864056    0.00000       Uiso       1.00
      C521          C  0.6340464  0.3390303  0.7038173    0.00000       Uiso       1.00
      C522          C  0.6157206  0.3543513  0.7004539    0.00000       Uiso       1.00
      O156          O  0.6034419  0.3796723  0.6538298    0.00000       Uiso       1.00
      H318          H  0.6449652  0.3591245  0.6439042    0.00000       Uiso       1.00
      H319          H  0.6761824  0.3366384  0.6509446    0.00000       Uiso       1.00
      H320          H  0.6310340  0.3312435  0.7198665    0.00000       Uiso       1.00
        B4          B  0.5798300  0.3915948  0.6604837    0.00000       Uiso       1.00
        B5          B  0.7596894  0.2570417  0.7049019    0.00000       Uiso       1.00
        B6          B  0.5354486  0.3466227  0.8847328    0.00000       Uiso       1.00
      H321          H  0.5400050  0.3895922  0.7283204    0.00000       Uiso       1.00
      H322          H  0.5320644  0.3816786  0.7666087    0.00000       Uiso       1.00
      H323          H  0.5187222  0.3798083  0.8358179    0.00000       Uiso       1.00
      H324          H  0.5258956  0.3880923  0.7977858    0.00000       Uiso       1.00
      C523          C  0.5957465  0.1472407  0.3375279    0.00000       Uiso       1.00
      C524          C  0.5818402  0.1645066  0.3292529    0.00000       Uiso       1.00
      C525          C  0.5752479  0.1601855  0.3182765    0.00000       Uiso       1.00
      C526          C  0.5622073  0.1776721  0.3091899    0.00000       Uiso       1.00
      C527          C  0.5566285  0.1997329  0.3096622    0.00000       Uiso       1.00
      C528          C  0.5636625  0.2037023  0.3205478    0.00000       Uiso       1.00
      C529          C  0.5746976  0.1867257  0.3318504    0.00000       Uiso       1.00
      O157          O  0.6046750  0.1246756  0.3357549    0.00000       Uiso       1.00
      H325          H  0.5801799  0.1431990  0.3169003    0.00000       Uiso       1.00
      H326          H  0.5567474  0.1736919  0.3016754    0.00000       Uiso       1.00
      H327          H  0.5617220  0.2198354  0.3191236    0.00000       Uiso       1.00
      C530          C  0.5374464  0.3082359  0.3820263    0.00000       Uiso       1.00
      C531          C  0.5457315  0.2860582  0.3786507    0.00000       Uiso       1.00
      C532          C  0.5567157  0.2684948  0.3895532    0.00000       Uiso       1.00
      C533          C  0.5658121  0.2463716  0.3850918    0.00000       Uiso       1.00
      C534          C  0.5653419  0.2412646  0.3686053    0.00000       Uiso       1.00
      C535          C  0.5544484  0.2591792  0.3576128    0.00000       Uiso       1.00
      C536          C  0.5431359  0.2815118  0.3635689    0.00000       Uiso       1.00
      O158          O  0.5392161  0.3153922  0.3956701    0.00000       Uiso       1.00
      H328          H  0.5580902  0.2720521  0.4016111    0.00000       Uiso       1.00
      H329          H  0.5733324  0.2334008  0.3945238    0.00000       Uiso       1.00
      H330          H  0.5558742  0.2558149  0.3434179    0.00000       Uiso       1.00
      C537          C  0.4929543  0.2944144  0.2792987    0.00000       Uiso       1.00
      C538          C  0.4963277  0.2993255  0.2931972    0.00000       Uiso       1.00
      C539          C  0.4854154  0.3212076  0.2997912    0.00000       Uiso       1.00
      C540          C  0.4898749  0.3258443  0.3128241    0.00000       Uiso       1.00
      C541          C  0.5063691  0.3088950  0.3183933    0.00000       Uiso       1.00
      C542          C  0.5173714  0.2870140  0.3113574    0.00000       Uiso       1.00
      C543          C  0.5114174  0.2816550  0.3003300    0.00000       Uiso       1.00
      O159          O  0.4793036  0.3098215  0.2703803    0.00000       Uiso       1.00
      H331          H  0.4733512  0.3346350  0.2948667    0.00000       Uiso       1.00
      H332          H  0.4804354  0.3427924  0.3182858    0.00000       Uiso       1.00
      H333          H  0.5315720  0.2742513  0.3132907    0.00000       Uiso       1.00
      C544          C  0.5040436  0.2729616  0.2724471    0.00000       Uiso       1.00
      C545          C  0.5181245  0.2549549  0.2801724    0.00000       Uiso       1.00
      C546          C  0.5290291  0.2330642  0.2736060    0.00000       Uiso       1.00
      C547          C  0.5421613  0.2152115  0.2824172    0.00000       Uiso       1.00
      C548          C  0.5435667  0.2187309  0.2990341    0.00000       Uiso       1.00
      C549          C  0.5322499  0.2408738  0.3056141    0.00000       Uiso       1.00
      C550          C  0.5209568  0.2591832  0.2952362    0.00000       Uiso       1.00
      O160          O  0.4989818  0.2715715  0.2582544    0.00000       Uiso       1.00
      H334          H  0.5273743  0.2299250  0.2615440    0.00000       Uiso       1.00
      H335          H  0.5509804  0.1987098  0.2762322    0.00000       Uiso       1.00
      H336          H  0.5310726  0.2438692  0.3198193    0.00000       Uiso       1.00
      C551          C  0.5270685  0.3254512  0.3709467    0.00000       Uiso       1.00
      C552          C  0.5231283  0.3216566  0.3568737    0.00000       Uiso       1.00
      C553          C  0.5121276  0.3392092  0.3459789    0.00000       Uiso       1.00
      C554          C  0.5073934  0.3351225  0.3328544    0.00000       Uiso       1.00
      C555          C  0.5123193  0.3135836  0.3314470    0.00000       Uiso       1.00
      C556          C  0.5231599  0.2961772  0.3427542    0.00000       Uiso       1.00
      C557          C  0.5301894  0.2995367  0.3540394    0.00000       Uiso       1.00
      O161          O  0.5206186  0.3460906  0.3760090    0.00000       Uiso       1.00
      H337          H  0.5073330  0.3560622  0.3476357    0.00000       Uiso       1.00
      H338          H  0.4996994  0.3489908  0.3240429    0.00000       Uiso       1.00
      H339          H  0.5249798  0.2801543  0.3439302    0.00000       Uiso       1.00
      C558          C  0.6025965  0.1514812  0.3478982    0.00000       Uiso       1.00
      C559          C  0.5948616  0.1732839  0.3518402    0.00000       Uiso       1.00
      C560          C  0.6014264  0.1776250  0.3628328    0.00000       Uiso       1.00
      C561          C  0.5926053  0.1995646  0.3675690    0.00000       Uiso       1.00
      C562          C  0.5759802  0.2175794  0.3626530    0.00000       Uiso       1.00
      C563          C  0.5694020  0.2128397  0.3518203    0.00000       Uiso       1.00
      C564          C  0.5797896  0.1911733  0.3447891    0.00000       Uiso       1.00
      O162          O  0.6167980  0.1322327  0.3543387    0.00000       Uiso       1.00
      H340          H  0.6134945  0.1639141  0.3676200    0.00000       Uiso       1.00
      H341          H  0.5987892  0.2022016  0.3752565    0.00000       Uiso       1.00
      H342          H  0.5551909  0.2258612  0.3500078    0.00000       Uiso       1.00
        B7          B  0.6180050  0.1153081  0.3465162    0.00000       Uiso       1.00
        B8          B  0.5284439  0.3394787  0.3917241    0.00000       Uiso       1.00
        B9          B  0.4832560  0.2951050  0.2570547    0.00000       Uiso       1.00
      C565          C  0.0805142  0.8527603  0.6624720    0.00000       Uiso       1.00
      C566          C  0.0755988  0.8354944  0.6707470    0.00000       Uiso       1.00
      C567          C  0.0537092  0.8398155  0.6817234    0.00000       Uiso       1.00
      C568          C  0.0490687  0.8223289  0.6908098    0.00000       Uiso       1.00
      C569          C  0.0660229  0.8002681  0.6903376    0.00000       Uiso       1.00
      C570          C  0.0879120  0.7962986  0.6794520    0.00000       Uiso       1.00
      C571          C  0.0932730  0.8132752  0.6681494    0.00000       Uiso       1.00
      O163          O  0.0651046  0.8753254  0.6642450    0.00000       Uiso       1.00
      H343          H  0.0402785  0.8568019  0.6830995    0.00000       Uiso       1.00
      H344          H  0.0321140  0.8263091  0.6983243    0.00000       Uiso       1.00
      H345          H  0.1006803  0.7801656  0.6808762    0.00000       Uiso       1.00
      C572          C  0.2277080  0.6917652  0.6179736    0.00000       Uiso       1.00
      C573          C  0.2104396  0.7139428  0.6213493    0.00000       Uiso       1.00
      C574          C  0.2147630  0.7315063  0.6104466    0.00000       Uiso       1.00
      C575          C  0.1972748  0.7536294  0.6149080    0.00000       Uiso       1.00
      C576          C  0.1752112  0.7587364  0.6313945    0.00000       Uiso       1.00
      C577          C  0.1712396  0.7408218  0.6423872    0.00000       Uiso       1.00
      C578          C  0.1882160  0.7184892  0.6364310    0.00000       Uiso       1.00
      O164          O  0.2502777  0.6846089  0.6043299    0.00000       Uiso       1.00
      H346          H  0.2317528  0.7279490  0.5983888    0.00000       Uiso       1.00
      H347          H  0.2012563  0.7666002  0.6054761    0.00000       Uiso       1.00
      H348          H  0.1551062  0.7441862  0.6565820    0.00000       Uiso       1.00
      C579          C  0.0666667  0.7055866  0.7207012    0.00000       Uiso       1.00
      C580          C  0.0888498  0.7006754  0.7068025    0.00000       Uiso       1.00
      C581          C  0.1064135  0.6787934  0.7002085    0.00000       Uiso       1.00
      C582          C  0.1285426  0.6741567  0.6871758    0.00000       Uiso       1.00
      C583          C  0.1336567  0.6911059  0.6816066    0.00000       Uiso       1.00
      C584          C  0.1157421  0.7129870  0.6886424    0.00000       Uiso       1.00
      C585          C  0.0934017  0.7183459  0.6996698    0.00000       Uiso       1.00
      O165          O  0.0595048  0.6901794  0.7296195    0.00000       Uiso       1.00
      H349          H  0.1028523  0.6653659  0.7051331    0.00000       Uiso       1.00
      H350          H  0.1415129  0.6572086  0.6817141    0.00000       Uiso       1.00
      H351          H  0.1191134  0.7257497  0.6867091    0.00000       Uiso       1.00
      C586          C  0.0494516  0.7270393  0.7275527    0.00000       Uiso       1.00
      C587          C  0.0532511  0.7450461  0.7198274    0.00000       Uiso       1.00
      C588          C  0.0356986  0.7669367  0.7263938    0.00000       Uiso       1.00
      C589          C  0.0397894  0.7847894  0.7175826    0.00000       Uiso       1.00
      C590          C  0.0613311  0.7812700  0.7009656    0.00000       Uiso       1.00
      C591          C  0.0787371  0.7591273  0.6943856    0.00000       Uiso       1.00
      C592          C  0.0753755  0.7408177  0.7047637    0.00000       Uiso       1.00
      O166          O  0.0288071  0.7284294  0.7417454    0.00000       Uiso       1.00
      H352          H  0.0188427  0.7700759  0.7384557    0.00000       Uiso       1.00
      H353          H  0.0259217  0.8012911  0.7237676    0.00000       Uiso       1.00
      H354          H  0.0947604  0.7561317  0.6801805    0.00000       Uiso       1.00
      C593          C  0.2234658  0.6745498  0.6290532    0.00000       Uiso       1.00
      C594          C  0.2016579  0.6783445  0.6431262    0.00000       Uiso       1.00
      C595          C  0.1973151  0.6607918  0.6540209    0.00000       Uiso       1.00
      C596          C  0.1753695  0.6648785  0.6671455    0.00000       Uiso       1.00
      C597          C  0.1573492  0.6864175  0.6685528    0.00000       Uiso       1.00
      C598          C  0.1620906  0.7038238  0.6572457    0.00000       Uiso       1.00
      C599          C  0.1837648  0.7004643  0.6459605    0.00000       Uiso       1.00
      O167          O  0.2427174  0.6539105  0.6239909    0.00000       Uiso       1.00
      H355          H  0.2110302  0.6439388  0.6523641    0.00000       Uiso       1.00
      H356          H  0.1727324  0.6510102  0.6759570    0.00000       Uiso       1.00
      H357          H  0.1490636  0.7198466  0.6560697    0.00000       Uiso       1.00
      C600          C  0.1019750  0.8485199  0.6521017    0.00000       Uiso       1.00
      C601          C  0.1199850  0.8267171  0.6481596    0.00000       Uiso       1.00
      C602          C  0.1418834  0.8223760  0.6371670    0.00000       Uiso       1.00
      C603          C  0.1597381  0.8004364  0.6324309    0.00000       Uiso       1.00
      C604          C  0.1562120  0.7824216  0.6373469    0.00000       Uiso       1.00
      C605          C  0.1340612  0.7871613  0.6481796    0.00000       Uiso       1.00
      C606          C  0.1157513  0.8088276  0.6552107    0.00000       Uiso       1.00
      O168          O  0.1033687  0.8677683  0.6456612    0.00000       Uiso       1.00
      H358          H  0.1450278  0.8360869  0.6323799    0.00000       Uiso       1.00
      H359          H  0.1762467  0.7977993  0.6247433    0.00000       Uiso       1.00
      H360          H  0.1310592  0.7741398  0.6499920    0.00000       Uiso       1.00
       B10          B  0.0798286  0.8846928  0.6534837    0.00000       Uiso       1.00
       B11          B  0.2596461  0.6605223  0.6082757    0.00000       Uiso       1.00
       B12          B  0.0354151  0.7048960  0.7429451    0.00000       Uiso       1.00
      C607          C  0.9952407  0.3530179  0.8347846    0.00000       Uiso       1.00
      C608          C  0.0001280  0.3357443  0.8249727    0.00000       Uiso       1.00
      C609          C  0.9934725  0.3400159  0.8097331    0.00000       Uiso       1.00
      C610          C  0.9976786  0.3225234  0.8009481    0.00000       Uiso       1.00
      C611          C  0.0073392  0.3004587  0.8082658    0.00000       Uiso       1.00
      C612          C  0.0136777  0.2964907  0.8238242    0.00000       Uiso       1.00
      C613          C  0.0118648  0.3134932  0.8309640    0.00000       Uiso       1.00
      O169          O  0.9830998  0.3756339  0.8315630    0.00000       Uiso       1.00
      H361          H  0.0188178  0.2803492  0.8314556    0.00000       Uiso       1.00
      C614          C  0.0978393  0.1918836  0.8794655    0.00000       Uiso       1.00
      C615          C  0.0854553  0.2140616  0.8745905    0.00000       Uiso       1.00
      C616          C  0.0831065  0.2316070  0.8813088    0.00000       Uiso       1.00
      C617          C  0.0699261  0.2537266  0.8770082    0.00000       Uiso       1.00
      C618          C  0.0576061  0.2588772  0.8671976    0.00000       Uiso       1.00
      C619          C  0.0598950  0.2409771  0.8608997    0.00000       Uiso       1.00
      C620          C  0.0749766  0.2186209  0.8628124    0.00000       Uiso       1.00
      O170          O  0.1083488  0.1847425  0.8915487    0.00000       Uiso       1.00
      H362          H  0.0917050  0.2280378  0.8897268    0.00000       Uiso       1.00
      H363          H  0.0693810  0.2666568  0.8815983    0.00000       Uiso       1.00
      H364          H  0.0489409  0.2443884  0.8556545    0.00000       Uiso       1.00
      C621          C  0.0392248  0.2058139  0.7769098    0.00000       Uiso       1.00
      C622          C  0.0490276  0.2008913  0.7892848    0.00000       Uiso       1.00
      C623          C  0.0642188  0.1789759  0.7916351    0.00000       Uiso       1.00
      C624          C  0.0731737  0.1743190  0.8048108    0.00000       Uiso       1.00
      C625          C  0.0660261  0.1912892  0.8171198    0.00000       Uiso       1.00
      C626          C  0.0504289  0.2132000  0.8148133    0.00000       Uiso       1.00
      C627          C  0.0431452  0.2185653  0.7997341    0.00000       Uiso       1.00
      O171          O  0.0426824  0.1903111  0.7663758    0.00000       Uiso       1.00
      H365          H  0.0692176  0.1655547  0.7830343    0.00000       Uiso       1.00
      H366          H  0.0855473  0.1573428  0.8053522    0.00000       Uiso       1.00
      H367          H  0.0428812  0.2260072  0.8257401    0.00000       Uiso       1.00
      C628          C  0.0242128  0.2273390  0.7746403    0.00000       Uiso       1.00
      C629          C  0.0187699  0.2453489  0.7839058    0.00000       Uiso       1.00
      C630          C  0.0035432  0.2672946  0.7816242    0.00000       Uiso       1.00
      C631          C  0.9991408  0.2850608  0.7901940    0.00000       Uiso       1.00
      C632          C  0.0109170  0.2814828  0.7999771    0.00000       Uiso       1.00
      C633          C  0.0264037  0.2593197  0.8018669    0.00000       Uiso       1.00
      C634          C  0.0292377  0.2410515  0.7956160    0.00000       Uiso       1.00
      O172          O  0.0162803  0.2286600  0.7619388    0.00000       Uiso       1.00
      H368          H  0.0372825  0.2563013  0.8070062    0.00000       Uiso       1.00
      C635          C  0.1001041  0.1746346  0.8729230    0.00000       Uiso       1.00
      C636          C  0.0908311  0.1784477  0.8603803    0.00000       Uiso       1.00
      C637          C  0.0931769  0.1608875  0.8536903    0.00000       Uiso       1.00
      C638          C  0.0844838  0.1649983  0.8404348    0.00000       Uiso       1.00
      C639          C  0.0745350  0.1865728  0.8323352    0.00000       Uiso       1.00
      C640          C  0.0726886  0.2039721  0.8389375    0.00000       Uiso       1.00
      C641          C  0.0790616  0.2005939  0.8542581    0.00000       Uiso       1.00
      O173          O  0.1127450  0.1539573  0.8795216    0.00000       Uiso       1.00
      H369          H  0.1016036  0.1440179  0.8589759    0.00000       Uiso       1.00
      H370          H  0.0858024  0.1511182  0.8365048    0.00000       Uiso       1.00
      H371          H  0.0674350  0.2200151  0.8311395    0.00000       Uiso       1.00
      C642          C  0.0017789  0.3487110  0.8497962    0.00000       Uiso       1.00
      C643          C  0.0143275  0.3269093  0.8552432    0.00000       Uiso       1.00
      C644          C  0.0210139  0.3225790  0.8704594    0.00000       Uiso       1.00
      C645          C  0.0342806  0.3006421  0.8750376    0.00000       Uiso       1.00
      C646          C  0.0423853  0.2825919  0.8634088    0.00000       Uiso       1.00
      C647          C  0.0357707  0.2873402  0.8478655    0.00000       Uiso       1.00
      C648          C  0.0204430  0.3090280  0.8448786    0.00000       Uiso       1.00
      O174          O  0.9951372  0.3679100  0.8579527    0.00000       Uiso       1.00
      H372          H  0.0157082  0.3363079  0.8788954    0.00000       Uiso       1.00
      H373          H  0.0382051  0.2980535  0.8875954    0.00000       Uiso       1.00
      H374          H  0.0435490  0.2743108  0.8370617    0.00000       Uiso       1.00
       B13          B  0.9832011  0.3848709  0.8462813    0.00000       Uiso       1.00
       B14          B  0.1178151  0.1606133  0.8914069    0.00000       Uiso       1.00
       B15          B  0.0280535  0.2051032  0.7568673    0.00000       Uiso       1.00
      H375          H  0.9851557  0.3568893  0.8044592    0.00000       Uiso       1.00
      H376          H  0.9930487  0.3265588  0.7885950    0.00000       Uiso       1.00
      H377          H  0.9948822  0.2707227  0.7733634    0.00000       Uiso       1.00
      H378          H  0.9866183  0.3015645  0.7888314    0.00000       Uiso       1.00
      C649          C  0.5218114  0.8821986  0.8085770    0.00000       Uiso       1.00
      C650          C  0.5390714  0.8788427  0.7863963    0.00000       Uiso       1.00
      C651          C  0.5347356  0.8897609  0.7688425    0.00000       Uiso       1.00
      C652          C  0.5522162  0.8853189  0.7467154    0.00000       Uiso       1.00
      C653          C  0.5742847  0.8688367  0.7415940    0.00000       Uiso       1.00
      C654          C  0.5782688  0.8578284  0.7594989    0.00000       Uiso       1.00
      C655          C  0.5612996  0.8637649  0.7818368    0.00000       Uiso       1.00
      O175          O  0.4992386  0.8958359  0.8157455    0.00000       Uiso       1.00
      H379          H  0.5177426  0.9018160  0.7724097    0.00000       Uiso       1.00
      H380          H  0.5482250  0.8947624  0.7337528    0.00000       Uiso       1.00
      H381          H  0.5944070  0.8436365  0.7561221    0.00000       Uiso       1.00
      C656          C  0.6828922  0.7794836  0.7946638    0.00000       Uiso       1.00
      C657          C  0.6607053  0.7933778  0.7995871    0.00000       Uiso       1.00
      C658          C  0.6431487  0.7999521  0.8214750    0.00000       Uiso       1.00
      C659          C  0.6210158  0.8129809  0.8261235    0.00000       Uiso       1.00
      C660          C  0.6158916  0.8185654  0.8091791    0.00000       Uiso       1.00
      C661          C  0.6337994  0.8115492  0.7872918    0.00000       Uiso       1.00
      C662          C  0.6561424  0.8005263  0.7819229    0.00000       Uiso       1.00
      O176          O  0.6900648  0.7705515  0.8100632    0.00000       Uiso       1.00
      H382          H  0.6467190  0.7950149  0.8348975    0.00000       Uiso       1.00
      H383          H  0.6080509  0.8184271  0.8430765    0.00000       Uiso       1.00
      H384          H  0.6304215  0.8134941  0.7745308    0.00000       Uiso       1.00
      C663          C  0.6689531  0.8378429  0.6475421    0.00000       Uiso       1.00
      C664          C  0.6738803  0.8295522  0.6648004    0.00000       Uiso       1.00
      C665          C  0.6957731  0.8185796  0.6604693    0.00000       Uiso       1.00
      C666          C  0.7004256  0.8094775  0.6779478    0.00000       Uiso       1.00
      C667          C  0.6834810  0.8099301  0.7000090    0.00000       Uiso       1.00
      C668          C  0.6615888  0.8208120  0.7039883    0.00000       Uiso       1.00
      C669          C  0.6562150  0.8321298  0.6870220    0.00000       Uiso       1.00
      O177          O  0.6843531  0.8360904  0.6249753    0.00000       Uiso       1.00
      H385          H  0.7091968  0.8172185  0.6434816    0.00000       Uiso       1.00
      H386          H  0.7173820  0.8019664  0.6739608    0.00000       Uiso       1.00
      H387          H  0.6488285  0.8193732  0.7201201    0.00000       Uiso       1.00
      C670          C  0.6474895  0.8482095  0.6517921    0.00000       Uiso       1.00
      C671          C  0.6294879  0.8521318  0.6735983    0.00000       Uiso       1.00
      C672          C  0.6075865  0.8631209  0.6779493    0.00000       Uiso       1.00
      C673          C  0.5897394  0.8678375  0.6998931    0.00000       Uiso       1.00
      C674          C  0.5932760  0.8629052  0.7179035    0.00000       Uiso       1.00
      C675          C  0.6154295  0.8520763  0.7131541    0.00000       Uiso       1.00
      C676          C  0.6337329  0.8450646  0.6914814    0.00000       Uiso       1.00
      O178          O  0.6460838  0.8546678  0.6325497    0.00000       Uiso       1.00
      H388          H  0.6044344  0.8679202  0.6642422    0.00000       Uiso       1.00
      H389          H  0.5732289  0.8755229  0.7025367    0.00000       Uiso       1.00
      H390          H  0.6184384  0.8502519  0.7261739    0.00000       Uiso       1.00
      C677          C  0.7001008  0.7726511  0.7732051    0.00000       Uiso       1.00
      C678          C  0.6962901  0.7803922  0.7552051    0.00000       Uiso       1.00
      C679          C  0.7138360  0.7738451  0.7333087    0.00000       Uiso       1.00
      C680          C  0.7097335  0.7826720  0.7154636    0.00000       Uiso       1.00
      C681          C  0.6881860  0.7992855  0.7189977    0.00000       Uiso       1.00
      C682          C  0.6707869  0.8058462  0.7411462    0.00000       Uiso       1.00
      C683          C  0.6741610  0.7954523  0.7594466    0.00000       Uiso       1.00
      O179          O  0.7207510  0.7584596  0.7718025    0.00000       Uiso       1.00
      H391          H  0.7306958  0.7617860  0.7301593    0.00000       Uiso       1.00
      H392          H  0.7235968  0.7765015  0.6989565    0.00000       Uiso       1.00
      H393          H  0.6547586  0.8200487  0.7441542    0.00000       Uiso       1.00
      C684          C  0.5260661  0.8711036  0.8257828    0.00000       Uiso       1.00
      C685          C  0.5478786  0.8570339  0.8219756    0.00000       Uiso       1.00
      C686          C  0.5522344  0.8461232  0.8395183    0.00000       Uiso       1.00
      C687          C  0.5741841  0.8330026  0.8354196    0.00000       Uiso       1.00
      C688          C  0.5921952  0.8316149  0.8138795    0.00000       Uiso       1.00
      C689          C  0.5874407  0.8429376  0.7964835    0.00000       Uiso       1.00
      C690          C  0.5657630  0.8542196  0.7998531    0.00000       Uiso       1.00
      O180          O  0.5068211  0.8761476  0.8464265    0.00000       Uiso       1.00
      H394          H  0.5385271  0.8477637  0.8563730    0.00000       Uiso       1.00
      H395          H  0.5768319  0.8241781  0.8492797    0.00000       Uiso       1.00
      H396          H  0.6004601  0.8441281  0.7804617    0.00000       Uiso       1.00
       B16          B  0.4898825  0.8918686  0.8398286    0.00000       Uiso       1.00
       B17          B  0.7141538  0.7572390  0.7953349    0.00000       Uiso       1.00
       B18          B  0.6696198  0.8468605  0.6156179    0.00000       Uiso       1.00
      C691          C  0.0223347  0.7947890  0.2231127    0.00000       Uiso       1.00
      C692          C  0.0396148  0.7997091  0.2107265    0.00000       Uiso       1.00
      C693          C  0.0353470  0.8215974  0.2083553    0.00000       Uiso       1.00
      C694          C  0.0528454  0.8261723  0.1950692    0.00000       Uiso       1.00
      C695          C  0.0749111  0.8091974  0.1826531    0.00000       Uiso       1.00
      C696          C  0.0788749  0.7873074  0.1850110    0.00000       Uiso       1.00
      C697          C  0.0618685  0.7819836  0.2001991    0.00000       Uiso       1.00
      O181          O  0.9997146  0.8101499  0.2336002    0.00000       Uiso       1.00
      H397          H  0.0950154  0.7745392  0.1740016    0.00000       Uiso       1.00
      C698          C  0.1834949  0.6475294  0.1644653    0.00000       Uiso       1.00
      C699          C  0.1613136  0.6647863  0.1742725    0.00000       Uiso       1.00
      C700          C  0.1437641  0.6604198  0.1894682    0.00000       Uiso       1.00
      C701          C  0.1216405  0.6778988  0.1984212    0.00000       Uiso       1.00
      C702          C  0.1164887  0.7000250  0.1912673    0.00000       Uiso       1.00
      C703          C  0.1343928  0.7040312  0.1756568    0.00000       Uiso       1.00
      C704          C  0.1567549  0.6870378  0.1683677    0.00000       Uiso       1.00
      O182          O  0.1906353  0.6249422  0.1678189    0.00000       Uiso       1.00
      H398          H  0.1473334  0.6434072  0.1944860    0.00000       Uiso       1.00
      H399          H  0.1087080  0.6738558  0.2108047    0.00000       Uiso       1.00
      H400          H  0.1309788  0.7202282  0.1681261    0.00000       Uiso       1.00
      C705          C  0.1695842  0.8086537  0.1198794    0.00000       Uiso       1.00
      C706          C  0.1745057  0.7864814  0.1247453    0.00000       Uiso       1.00
      C707          C  0.1964267  0.7689411  0.1180064    0.00000       Uiso       1.00
      C708          C  0.2010818  0.7468163  0.1222906    0.00000       Uiso       1.00
      C709          C  0.1841029  0.7416605  0.1321140    0.00000       Uiso       1.00
      C710          C  0.1621861  0.7595631  0.1384427    0.00000       Uiso       1.00
      C711          C  0.1568244  0.7819193  0.1365375    0.00000       Uiso       1.00
      O183          O  0.1850933  0.8157254  0.1078358    0.00000       Uiso       1.00
      H401          H  0.2098541  0.7725392  0.1095834    0.00000       Uiso       1.00
      H402          H  0.2180634  0.7339016  0.1176766    0.00000       Uiso       1.00
      H403          H  0.1493707  0.7561889  0.1437040    0.00000       Uiso       1.00
      C712          C  0.1480534  0.8259342  0.1264070    0.00000       Uiso       1.00
      C713          C  0.1300368  0.8221158  0.1389747    0.00000       Uiso       1.00
      C714          C  0.1080854  0.8396230  0.1457083    0.00000       Uiso       1.00
      C715          C  0.0903134  0.8354594  0.1590724    0.00000       Uiso       1.00
      C716          C  0.0938923  0.8139045  0.1672555    0.00000       Uiso       1.00
      C717          C  0.1160615  0.7965288  0.1605643    0.00000       Uiso       1.00
      C718          C  0.1343337  0.7999429  0.1451306    0.00000       Uiso       1.00
      O184          O  0.1467345  0.8465625  0.1198082    0.00000       Uiso       1.00
      H404          H  0.1190824  0.7805131  0.1684128    0.00000       Uiso       1.00
      C719          C  0.2007479  0.6518041  0.1494820    0.00000       Uiso       1.00
      C720          C  0.1969362  0.6736143  0.1440360    0.00000       Uiso       1.00
      C721          C  0.2145005  0.6779555  0.1288225    0.00000       Uiso       1.00
      C722          C  0.2103917  0.6998982  0.1242539    0.00000       Uiso       1.00
      C723          C  0.1888164  0.7179428  0.1358922    0.00000       Uiso       1.00
      C724          C  0.1714133  0.7131901  0.1514437    0.00000       Uiso       1.00
      C725          C  0.1747875  0.6915032  0.1544260    0.00000       Uiso       1.00
      O185          O  0.2214279  0.6325677  0.1414312    0.00000       Uiso       1.00
      H405          H  0.2313715  0.6642455  0.1203697    0.00000       Uiso       1.00
      H406          H  0.2242741  0.7025079  0.1116930    0.00000       Uiso       1.00
      H407          H  0.1553714  0.7262381  0.1622412    0.00000       Uiso       1.00
      C726          C  0.0266377  0.7732459  0.2253315    0.00000       Uiso       1.00
      C727          C  0.0484426  0.7552527  0.2160647    0.00000       Uiso       1.00
      C728          C  0.0527692  0.7333568  0.2184080    0.00000       Uiso       1.00
      C729          C  0.0747100  0.7155140  0.2097239    0.00000       Uiso       1.00
      C730          C  0.0927689  0.7190328  0.1997764    0.00000       Uiso       1.00
      C731          C  0.0880246  0.7411839  0.1979230    0.00000       Uiso       1.00
      C732          C  0.0663313  0.7594972  0.2042981    0.00000       Uiso       1.00
      O186          O  0.0074321  0.7717345  0.2378912    0.00000       Uiso       1.00
      H408          H  0.0390341  0.7302303  0.2268322    0.00000       Uiso       1.00
      H409          H  0.0772947  0.6990373  0.2110507    0.00000       Uiso       1.00
      H410          H  0.1010624  0.7442045  0.1926697    0.00000       Uiso       1.00
       B19          B  0.9904709  0.7953366  0.2429320    0.00000       Uiso       1.00
       B20          B  0.2147688  0.6156176  0.1531476    0.00000       Uiso       1.00
       B21          B  0.1702988  0.8398585  0.1080164    0.00000       Uiso       1.00
      H411          H  0.0184722  0.8351856  0.2169219    0.00000       Uiso       1.00
      H412          H  0.0488134  0.8431498  0.1944844    0.00000       Uiso       1.00
      H413          H  0.1046572  0.8565410  0.1404869    0.00000       Uiso       1.00
      H414          H  0.0738047  0.8493438  0.1630653    0.00000       Uiso       1.00
      C733          C  0.2125871  0.1178024  0.1914229    0.00000       Uiso       1.00
      C734          C  0.2043106  0.1211583  0.2136035    0.00000       Uiso       1.00
      C735          C  0.1933391  0.1102401  0.2311574    0.00000       Uiso       1.00
      C736          C  0.1842505  0.1146821  0.2532844    0.00000       Uiso       1.00
      C737          C  0.1847154  0.1311643  0.2584059    0.00000       Uiso       1.00
      C738          C  0.1955961  0.1421726  0.2405010    0.00000       Uiso       1.00
      C739          C  0.2069014  0.1362361  0.2181631    0.00000       Uiso       1.00
      O187          O  0.2108202  0.1041651  0.1842544    0.00000       Uiso       1.00
      H415          H  0.1919683  0.0981851  0.2275902    0.00000       Uiso       1.00
      H416          H  0.1767403  0.1052386  0.2662471    0.00000       Uiso       1.00
      H417          H  0.1941655  0.1563645  0.2438779    0.00000       Uiso       1.00
      C740          C  0.2570396  0.2205175  0.2053362    0.00000       Uiso       1.00
      C741          C  0.2536702  0.2066233  0.2004129    0.00000       Uiso       1.00
      C742          C  0.2645757  0.2000490  0.1785250    0.00000       Uiso       1.00
      C743          C  0.2601201  0.1870202  0.1738765    0.00000       Uiso       1.00
      C744          C  0.2436362  0.1814357  0.1908208    0.00000       Uiso       1.00
      C745          C  0.2326404  0.1884519  0.2127082    0.00000       Uiso       1.00
      C746          C  0.2385916  0.1994748  0.2180770    0.00000       Uiso       1.00
      O188          O  0.2706794  0.2294496  0.1899368    0.00000       Uiso       1.00
      H418          H  0.2766314  0.2049862  0.1651025    0.00000       Uiso       1.00
      H419          H  0.2695545  0.1815739  0.1569235    0.00000       Uiso       1.00
      H420          H  0.2184464  0.1865070  0.2254692    0.00000       Uiso       1.00
      C747          C  0.1543380  0.1621582  0.3524579    0.00000       Uiso       1.00
      C748          C  0.1682328  0.1704489  0.3351995    0.00000       Uiso       1.00
      C749          C  0.1748219  0.1814215  0.3395307    0.00000       Uiso       1.00
      C750          C  0.1878507  0.1905236  0.3220522    0.00000       Uiso       1.00
      C751          C  0.1934201  0.1900709  0.2999910    0.00000       Uiso       1.00
      C752          C  0.1863891  0.1791891  0.2960116    0.00000       Uiso       1.00
      C753          C  0.1753667  0.1678712  0.3129780    0.00000       Uiso       1.00
      O189          O  0.1454187  0.1639106  0.3750246    0.00000       Uiso       1.00
      H421          H  0.1698968  0.1827826  0.3565184    0.00000       Uiso       1.00
      H422          H  0.1933090  0.1980346  0.3260392    0.00000       Uiso       1.00
      H423          H  0.1883218  0.1806279  0.2798798    0.00000       Uiso       1.00
      C754          C  0.1474911  0.1517916  0.3482078    0.00000       Uiso       1.00
      C755          C  0.1552181  0.1478692  0.3264016    0.00000       Uiso       1.00
      C756          C  0.1486566  0.1368802  0.3220506    0.00000       Uiso       1.00
      C757          C  0.1574700  0.1321636  0.3001069    0.00000       Uiso       1.00
      C758          C  0.1740847  0.1370958  0.2820964    0.00000       Uiso       1.00
      C759          C  0.1806598  0.1479248  0.2868458    0.00000       Uiso       1.00
      C760          C  0.1702787  0.1549365  0.3085186    0.00000       Uiso       1.00
      O190          O  0.1333012  0.1453333  0.3674502    0.00000       Uiso       1.00
      H424          H  0.1365968  0.1320808  0.3357577    0.00000       Uiso       1.00
      H425          H  0.1512884  0.1244782  0.2974631    0.00000       Uiso       1.00
      H426          H  0.1948642  0.1497492  0.2738260    0.00000       Uiso       1.00
      C761          C  0.2459569  0.2273500  0.2267949    0.00000       Uiso       1.00
      C762          C  0.2318873  0.2196089  0.2447949    0.00000       Uiso       1.00
      C763          C  0.2209897  0.2261560  0.2666913    0.00000       Uiso       1.00
      C764          C  0.2078691  0.2173291  0.2845364    0.00000       Uiso       1.00
      C765          C  0.2064691  0.2007155  0.2810023    0.00000       Uiso       1.00
      C766          C  0.2177792  0.1941548  0.2588537    0.00000       Uiso       1.00
      C767          C  0.2290598  0.2045488  0.2405533    0.00000       Uiso       1.00
      O191          O  0.2510129  0.2415416  0.2281975    0.00000       Uiso       1.00
      H427          H  0.2226411  0.2382150  0.2698407    0.00000       Uiso       1.00
      H428          H  0.1990547  0.2234996  0.3010435    0.00000       Uiso       1.00
      H429          H  0.2189616  0.1799523  0.2558458    0.00000       Uiso       1.00
      C768          C  0.2229525  0.1288975  0.1742171    0.00000       Uiso       1.00
      C769          C  0.2268882  0.1429671  0.1780243    0.00000       Uiso       1.00
      C770          C  0.2378760  0.1538779  0.1604816    0.00000       Uiso       1.00
      C771          C  0.2426063  0.1669985  0.1645803    0.00000       Uiso       1.00
      C772          C  0.2376897  0.1683862  0.1861204    0.00000       Uiso       1.00
      C773          C  0.2268620  0.1570634  0.2035164    0.00000       Uiso       1.00
      C774          C  0.2198358  0.1457814  0.2001468    0.00000       Uiso       1.00
      O192          O  0.2293953  0.1238534  0.1535734    0.00000       Uiso       1.00
      H430          H  0.2426639  0.1522373  0.1436269    0.00000       Uiso       1.00
      H431          H  0.2502899  0.1758229  0.1507202    0.00000       Uiso       1.00
      H432          H  0.2250499  0.1558729  0.2195382    0.00000       Uiso       1.00
       B22          B  0.2215798  0.1081325  0.1601713    0.00000       Uiso       1.00
       B23          B  0.2667275  0.2427621  0.2046651    0.00000       Uiso       1.00
       B24          B  0.1320980  0.1531406  0.3843820    0.00000       Uiso       1.00
