data_2
_audit_creation_date              0000-00-00
_audit_creation_method            'LanYouShi'
_symmetry_space_group_name_H-M    'P1'
_cell_length_a                    44.7468987
_cell_length_b                    47.8088989
_cell_length_c                    34.7223015
_cell_angle_alpha                 89.8889008
_cell_angle_beta                  91.1032028
_cell_angle_gamma                 90.6622009
loop_
_atom_site_label
_atom_site_type_symbol
_atom_site_fract_x
_atom_site_fract_y
_atom_site_fract_z
_atom_site_U_iso_or_equiv
_atom_site_adp_type
_atom_site_occupancy
        C1          C  0.1048432  0.1013057  0.3522710    0.00000       Uiso       1.00
        C2          C  0.2321885  0.5223053  0.0858000    0.00000       Uiso       1.00
        C3          C  0.3093188  0.8556691  0.3129067    0.00000       Uiso       1.00
        C4          C  0.2887540  0.8769672  0.3201786    0.00000       Uiso       1.00
        C5          C  0.2978034  0.9017176  0.3396173    0.00000       Uiso       1.00
        C6          C  0.3283341  0.9048852  0.3503597    0.00000       Uiso       1.00
        C7          C  0.3489068  0.8836538  0.3430005    0.00000       Uiso       1.00
        C8          C  0.3817266  0.6421893  0.2498755    0.00000       Uiso       1.00
        C9          C  0.3673907  0.6182945  0.2342825    0.00000       Uiso       1.00
       C10          C  0.3374038  0.6192443  0.2207145    0.00000       Uiso       1.00
       C11          C  0.3219439  0.6447167  0.2245551    0.00000       Uiso       1.00
       C12          C  0.3362233  0.6685265  0.2404026    0.00000       Uiso       1.00
       C13          C  0.5987468  0.8593528  0.2425599    0.00000       Uiso       1.00
       C14          C  0.6132343  0.8829190  0.2269672    0.00000       Uiso       1.00
       C15          C  0.5980675  0.9085296  0.2219978    0.00000       Uiso       1.00
       C16          C  0.5681278  0.9098480  0.2342135    0.00000       Uiso       1.00
       C17          C  0.5535678  0.8861818  0.2495860    0.00000       Uiso       1.00
       C18          C  0.5872964  0.6440210  0.3443983    0.00000       Uiso       1.00
       C19          C  0.6082410  0.6234356  0.3547049    0.00000       Uiso       1.00
       C20          C  0.6392915  0.6284549  0.3509546    0.00000       Uiso       1.00
       C21          C  0.6485049  0.6541684  0.3345475    0.00000       Uiso       1.00
       C22          C  0.6275499  0.6746444  0.3239894    0.00000       Uiso       1.00
       C23          C  0.2764597  0.9220276  0.3484743    0.00000       Uiso       1.00
       C24          C  0.6609232  0.6093443  0.3643378    0.00000       Uiso       1.00
       C25          C  0.8055102  0.4283104  0.3423522    0.00000       Uiso       1.00
       C26          C  0.9499201  0.2592292  0.2493048    0.00000       Uiso       1.00
       C27          C  0.9802508  0.2758528  0.2500491    0.00000       Uiso       1.00
       C28          C  0.9690779  0.2630089  0.3125100    0.00000       Uiso       1.00
       C29          C  0.9826804  0.2369752  0.3325653    0.00000       Uiso       1.00
       C30          C  0.8993226  0.2478608  0.2157773    0.00000       Uiso       1.00
       C31          C  0.8896091  0.2282574  0.2438325    0.00000       Uiso       1.00
       C32          C  0.8681467  0.2073049  0.2352760    0.00000       Uiso       1.00
       C33          C  0.8548655  0.2053046  0.1981517    0.00000       Uiso       1.00
       C34          C  0.8641562  0.2246210  0.1698755    0.00000       Uiso       1.00
       C35          C  0.8857152  0.2453606  0.1785594    0.00000       Uiso       1.00
       C36          C  0.9216539  0.2712383  0.2253834    0.00000       Uiso       1.00
       C37          C  0.7533537  0.0750496  0.1427462    0.00000       Uiso       1.00
        N1          N  0.7704257  0.0964642  0.1569271    0.00000       Uiso       1.00
       C38          C  0.9015393  0.2931580  0.2432982    0.00000       Uiso       1.00
       C39          C  0.8950968  0.2945499  0.2831189    0.00000       Uiso       1.00
       C40          C  0.8778273  0.3159540  0.2988033    0.00000       Uiso       1.00
       C41          C  0.8649179  0.3366504  0.2749530    0.00000       Uiso       1.00
       C42          C  0.8684166  0.3340831  0.2348214    0.00000       Uiso       1.00
       C43          C  0.8856063  0.3124404  0.2196085    0.00000       Uiso       1.00
       C44          C  0.9588408  0.2846248  0.3425725    0.00000       Uiso       1.00
        N2          N  0.7837282  0.4252374  0.3685891    0.00000       Uiso       1.00
       C45          C  0.7689757  0.4444195  0.3894984    0.00000       Uiso       1.00
       C46          C  0.0307258  0.2880383  0.2152143    0.00000       Uiso       1.00
       C47          C  0.0566785  0.2805739  0.1947726    0.00000       Uiso       1.00
       C48          C  0.0795185  0.2999121  0.1862490    0.00000       Uiso       1.00
       C49          C  0.0780470  0.3279938  0.1985922    0.00000       Uiso       1.00
       C50          C  0.0530436  0.3356054  0.2203234    0.00000       Uiso       1.00
       C51          C  0.0301596  0.3161626  0.2284503    0.00000       Uiso       1.00
       C52          C  0.0064338  0.2658986  0.2227883    0.00000       Uiso       1.00
       C53          C  0.1819606  0.4536872  0.1359536    0.00000       Uiso       1.00
        N3          N  0.1638601  0.4333302  0.1500448    0.00000       Uiso       1.00
       C54          C  0.0203251  0.2400712  0.2411527    0.00000       Uiso       1.00
       C55          C  0.0115689  0.2124412  0.2308198    0.00000       Uiso       1.00
       C56          C  0.0251627  0.1889289  0.2478019    0.00000       Uiso       1.00
       C57          C  0.0479140  0.1920880  0.2763030    0.00000       Uiso       1.00
       C58          C  0.0562622  0.2194889  0.2876449    0.00000       Uiso       1.00
       C59          C  0.0426937  0.2428468  0.2705324    0.00000       Uiso       1.00
        N4          N  0.1349321  0.0995593  0.3552773    0.00000       Uiso       1.00
       C60          C  0.1528489  0.0821768  0.3757696    0.00000       Uiso       1.00
        O1          O  0.9442549  0.2539780  0.2889666    0.00000       Uiso       1.00
        O2          O  0.9901384  0.2593401  0.1870412    0.00000       Uiso       1.00
        O3          O  0.9907309  0.2765838  0.2891443    0.00000       Uiso       1.00
        O4          O  0.9338935  0.2800502  0.1882071    0.00000       Uiso       1.00
       C61          C  0.7283581  0.0783285  0.1175992    0.00000       Uiso       1.00
       C62          C  0.7130801  0.0548677  0.1022909    0.00000       Uiso       1.00
       C63          C  0.7222945  0.0274590  0.1116363    0.00000       Uiso       1.00
       C64          C  0.7466388  0.0242075  0.1377563    0.00000       Uiso       1.00
       C65          C  0.7619951  0.0476924  0.1529727    0.00000       Uiso       1.00
       C66          C  0.2090456  0.4486820  0.1169121    0.00000       Uiso       1.00
       C67          C  0.2256412  0.4709642  0.1012137    0.00000       Uiso       1.00
       C68          C  0.2156920  0.4988146  0.1042327    0.00000       Uiso       1.00
       C69          C  0.1890759  0.5038424  0.1242494    0.00000       Uiso       1.00
       C70          C  0.1723521  0.4815289  0.1396857    0.00000       Uiso       1.00
       C71          C  0.1837416  0.0843837  0.3688637    0.00000       Uiso       1.00
       C72          C  0.2042660  0.0681729  0.3900944    0.00000       Uiso       1.00
       C73          C  0.1943466  0.0492015  0.4185770    0.00000       Uiso       1.00
       C74          C  0.1633232  0.0467671  0.4250644    0.00000       Uiso       1.00
       C75          C  0.1427794  0.0630741  0.4039567    0.00000       Uiso       1.00
       C76          C  0.7449650  0.4344429  0.4116142    0.00000       Uiso       1.00
       C77          C  0.7285640  0.4527391  0.4346006    0.00000       Uiso       1.00
       C78          C  0.7358663  0.4815646  0.4362024    0.00000       Uiso       1.00
       C79          C  0.7599935  0.4915319  0.4141024    0.00000       Uiso       1.00
       C80          C  0.7763032  0.4732624  0.3910038    0.00000       Uiso       1.00
       C81          C  0.7191749  0.5010622  0.4610294    0.00000       Uiso       1.00
       C82          C  0.8326588  0.1849506  0.1892546    0.00000       Uiso       1.00
       C83          C  0.8491405  0.3591644  0.2908220    0.00000       Uiso       1.00
       C84          C  0.1006689  0.3477267  0.1892930    0.00000       Uiso       1.00
       C85          C  0.0620069  0.1687566  0.2934545    0.00000       Uiso       1.00
       C86          C  0.3241195  0.5954649  0.2031846    0.00000       Uiso       1.00
       C87          C  0.1313321  0.3408112  0.1918873    0.00000       Uiso       1.00
       C88          C  0.1536860  0.3601238  0.1812879    0.00000       Uiso       1.00
       C89          C  0.1462322  0.3872166  0.1681133    0.00000       Uiso       1.00
       C90          C  0.1156554  0.3944274  0.1663352    0.00000       Uiso       1.00
       C91          C  0.0933132  0.3749932  0.1765411    0.00000       Uiso       1.00
       C92          C  0.0452650  0.1458023  0.3076653    0.00000       Uiso       1.00
       C93          C  0.0595371  0.1233626  0.3264716    0.00000       Uiso       1.00
       C94          C  0.0909888  0.1231360  0.3315471    0.00000       Uiso       1.00
       C95          C  0.1077343  0.1456791  0.3161540    0.00000       Uiso       1.00
       C96          C  0.0935050  0.1680508  0.2973924    0.00000       Uiso       1.00
       C97          C  0.8264018  0.3545998  0.3179390    0.00000       Uiso       1.00
       C98          C  0.8116441  0.3772254  0.3347350    0.00000       Uiso       1.00
       C99          C  0.8191500  0.4051876  0.3250289    0.00000       Uiso       1.00
      C100          C  0.8414758  0.4096599  0.2972971    0.00000       Uiso       1.00
      C101          C  0.8561989  0.3870541  0.2804498    0.00000       Uiso       1.00
      C102          C  0.8371542  0.1562171  0.1969169    0.00000       Uiso       1.00
      C103          C  0.8153344  0.1360583  0.1862130    0.00000       Uiso       1.00
      C104          C  0.7882919  0.1440174  0.1675971    0.00000       Uiso       1.00
      C105          C  0.7834677  0.1728599  0.1611814    0.00000       Uiso       1.00
      C106          C  0.8052512  0.1929561  0.1717779    0.00000       Uiso       1.00
      C107          C  0.1689615  0.4058525  0.1564364    0.00000       Uiso       1.00
      C108          C  0.7665848  0.1244603  0.1544723    0.00000       Uiso       1.00
      C109          C  0.4806904  0.7536158  0.2858694    0.00000       Uiso       1.00
      C110          C  0.4544429  0.7750660  0.2856518    0.00000       Uiso       1.00
      C111          C  0.4670360  0.7646546  0.2227168    0.00000       Uiso       1.00
      C112          C  0.4511338  0.7423472  0.1970356    0.00000       Uiso       1.00
      C113          C  0.5323476  0.7359717  0.3135640    0.00000       Uiso       1.00
      C114          C  0.5268185  0.7084641  0.2994633    0.00000       Uiso       1.00
      C115          C  0.5479033  0.6869808  0.3040047    0.00000       Uiso       1.00
      C116          C  0.5757856  0.6919315  0.3227514    0.00000       Uiso       1.00
      C117          C  0.5820648  0.7194531  0.3355309    0.00000       Uiso       1.00
      C118          C  0.5610151  0.7407870  0.3307611    0.00000       Uiso       1.00
      C119          C  0.5098307  0.7598342  0.3116194    0.00000       Uiso       1.00
      C120          C  0.6707858  0.5646670  0.3968641    0.00000       Uiso       1.00
        N5          N  0.6535597  0.5837892  0.3783288    0.00000       Uiso       1.00
      C121          C  0.5245547  0.7864750  0.2966817    0.00000       Uiso       1.00
      C122          C  0.5427806  0.7857909  0.2637039    0.00000       Uiso       1.00
      C123          C  0.5569573  0.8099744  0.2495408    0.00000       Uiso       1.00
      C124          C  0.5537392  0.8361585  0.2677980    0.00000       Uiso       1.00
      C125          C  0.5352910  0.8371651  0.3004035    0.00000       Uiso       1.00
      C126          C  0.5209575  0.8129121  0.3143304    0.00000       Uiso       1.00
      C127          C  0.4825939  0.7873431  0.1979718    0.00000       Uiso       1.00
        N6          N  0.6386951  0.9303698  0.1880429    0.00000       Uiso       1.00
      C128          C  0.6549485  0.9492655  0.1678753    0.00000       Uiso       1.00
      C129          C  0.4032484  0.7927396  0.3118839    0.00000       Uiso       1.00
      C130          C  0.3744263  0.7878580  0.3272992    0.00000       Uiso       1.00
      C131          C  0.3534027  0.8092197  0.3309844    0.00000       Uiso       1.00
      C132          C  0.3601730  0.8367805  0.3191338    0.00000       Uiso       1.00
      C133          C  0.3882471  0.8419455  0.3025027    0.00000       Uiso       1.00
      C134          C  0.4091727  0.8204237  0.2988837    0.00000       Uiso       1.00
      C135          C  0.4257282  0.7688828  0.3108177    0.00000       Uiso       1.00
      C136          C  0.2661127  0.9636634  0.3878853    0.00000       Uiso       1.00
        N7          N  0.2830364  0.9431421  0.3731565    0.00000       Uiso       1.00
      C137          C  0.4108258  0.7421700  0.2958386    0.00000       Uiso       1.00
      C138          C  0.4146598  0.7158790  0.3140962    0.00000       Uiso       1.00
      C139          C  0.4000832  0.6915472  0.3002768    0.00000       Uiso       1.00
      C140          C  0.3812302  0.6922793  0.2671170    0.00000       Uiso       1.00
      C141          C  0.3776941  0.7183397  0.2483264    0.00000       Uiso       1.00
      C142          C  0.3921102  0.7426208  0.2623895    0.00000       Uiso       1.00
        N8          N  0.2974373  0.5968051  0.1842672    0.00000       Uiso       1.00
      C143          C  0.2817541  0.5774410  0.1634948    0.00000       Uiso       1.00
        O5          O  0.4887722  0.7507961  0.2464604    0.00000       Uiso       1.00
        O6          O  0.4391188  0.7657357  0.3491466    0.00000       Uiso       1.00
        O7          O  0.4455583  0.7781030  0.2461362    0.00000       Uiso       1.00
        O8          O  0.4968027  0.7631892  0.3494481    0.00000       Uiso       1.00
      C144          C  0.6981114  0.5712838  0.4160859    0.00000       Uiso       1.00
      C145          C  0.7138634  0.5506631  0.4367796    0.00000       Uiso       1.00
      C146          C  0.7029264  0.5228299  0.4384955    0.00000       Uiso       1.00
      C147          C  0.6759463  0.5161386  0.4185657    0.00000       Uiso       1.00
      C148          C  0.6599882  0.5368580  0.3982735    0.00000       Uiso       1.00
      C149          C  0.2354523  0.9674239  0.3788279    0.00000       Uiso       1.00
      C150          C  0.2170728  0.9893430  0.3965882    0.00000       Uiso       1.00
      C151          C  0.2356292  0.0131859  0.4166398    0.00000       Uiso       1.00
      C152          C  0.2625189  0.0011605  0.4398714    0.00000       Uiso       1.00
      C153          C  0.2825971  0.9824779  0.4151999    0.00000       Uiso       1.00
      C154          C  0.2557391  0.5868032  0.1440854    0.00000       Uiso       1.00
      C155          C  0.2391599  0.5688243  0.1195332    0.00000       Uiso       1.00
      C156          C  0.2481462  0.5409052  0.1138878    0.00000       Uiso       1.00
      C157          C  0.2734595  0.5311887  0.1346765    0.00000       Uiso       1.00
      C158          C  0.2900932  0.5491964  0.1591394    0.00000       Uiso       1.00
      C159          C  0.6817883  0.9395897  0.1522519    0.00000       Uiso       1.00
      C160          C  0.6993118  0.9570290  0.1288144    0.00000       Uiso       1.00
      C161          C  0.6904541  0.9847066  0.1204269    0.00000       Uiso       1.00
      C162          C  0.6641213  0.9947199  0.1372589    0.00000       Uiso       1.00
      C163          C  0.6465572  0.9772509  0.1606690    0.00000       Uiso       1.00
      C164          C  0.7076215  0.0026006  0.0933312    0.00000       Uiso       1.00
      C165          C  0.2162668  0.0326837  0.4416867    0.00000       Uiso       1.00
      C166          C  0.5966011  0.6703135  0.3297766    0.00000       Uiso       1.00
      C167          C  0.5684842  0.8603491  0.2536206    0.00000       Uiso       1.00
      C168          C  0.3396434  0.8585522  0.3246387    0.00000       Uiso       1.00
      C169          C  0.3665481  0.6679004  0.2528041    0.00000       Uiso       1.00
      C170          C  0.6116687  0.9320406  0.2046863    0.00000       Uiso       1.00
        H1          H  0.0918422  0.0867214  0.3657484    0.00000       Uiso       1.00
        H2          H  0.2487082  0.5144498  0.0658116    0.00000       Uiso       1.00
        H3          H  0.2162185  0.5340471  0.0680602    0.00000       Uiso       1.00
        H4          H  0.3018910  0.8379588  0.2990310    0.00000       Uiso       1.00
        H5          H  0.2669609  0.8740289  0.3114308    0.00000       Uiso       1.00
        H6          H  0.3359987  0.9226246  0.3639073    0.00000       Uiso       1.00
        H7          H  0.3707003  0.8865849  0.3517535    0.00000       Uiso       1.00
        H8          H  0.4036280  0.6406528  0.2585765    0.00000       Uiso       1.00
        H9          H  0.3793233  0.6002117  0.2324657    0.00000       Uiso       1.00
       H10          H  0.3000813  0.6463127  0.2157193    0.00000       Uiso       1.00
       H11          H  0.3241047  0.6864479  0.2427513    0.00000       Uiso       1.00
       H12          H  0.6106716  0.8413271  0.2457435    0.00000       Uiso       1.00
       H13          H  0.6350473  0.8810220  0.2191560    0.00000       Uiso       1.00
       H14          H  0.5564142  0.9280494  0.2316052    0.00000       Uiso       1.00
       H15          H  0.5317209  0.8879641  0.2573390    0.00000       Uiso       1.00
       H16          H  0.5651238  0.6397583  0.3485667    0.00000       Uiso       1.00
       H17          H  0.6004807  0.6049230  0.3657098    0.00000       Uiso       1.00
       H18          H  0.6706998  0.6584551  0.3305084    0.00000       Uiso       1.00
       H19          H  0.6352360  0.6929817  0.3123327    0.00000       Uiso       1.00
       H20          H  0.2553657  0.9201788  0.3369120    0.00000       Uiso       1.00
       H21          H  0.6829897  0.6152241  0.3641357    0.00000       Uiso       1.00
       H22          H  0.8124689  0.4480146  0.3349404    0.00000       Uiso       1.00
       H23          H  0.9545397  0.2385740  0.2376000    0.00000       Uiso       1.00
       H24          H  0.9741769  0.2972192  0.2438956    0.00000       Uiso       1.00
       H25          H  0.9883137  0.2212737  0.3112723    0.00000       Uiso       1.00
       H26          H  0.9666859  0.2275567  0.3522457    0.00000       Uiso       1.00
       H27          H  1.0029383  0.2427419  0.3488294    0.00000       Uiso       1.00
       H28          H  0.8978046  0.2290463  0.2713763    0.00000       Uiso       1.00
       H29          H  0.8619846  0.1937435  0.2566214    0.00000       Uiso       1.00
       H30          H  0.8552398  0.2238171  0.1425075    0.00000       Uiso       1.00
       H31          H  0.8909884  0.2589594  0.1569410    0.00000       Uiso       1.00
       H32          H  0.9023239  0.2797953  0.3019036    0.00000       Uiso       1.00
       H33          H  0.8749304  0.3163257  0.3279781    0.00000       Uiso       1.00
       H34          H  0.8583685  0.3479017  0.2162674    0.00000       Uiso       1.00
       H35          H  0.8862600  0.3110138  0.1903253    0.00000       Uiso       1.00
       H36          H  0.9410988  0.2758150  0.3601885    0.00000       Uiso       1.00
       H37          H  0.9504385  0.3032993  0.3280743    0.00000       Uiso       1.00
       H38          H  0.9775339  0.2909141  0.3614164    0.00000       Uiso       1.00
       H39          H  0.0594838  0.2604713  0.1857676    0.00000       Uiso       1.00
       H40          H  0.0972134  0.2931940  0.1706138    0.00000       Uiso       1.00
       H41          H  0.0512753  0.3555272  0.2307479    0.00000       Uiso       1.00
       H42          H  0.0132621  0.3234333  0.2446691    0.00000       Uiso       1.00
       H43          H -0.0049868  0.2089770  0.2106922    0.00000       Uiso       1.00
       H44          H  0.0183702  0.1694233  0.2389531    0.00000       Uiso       1.00
       H45          H  0.0722237  0.2227600  0.3087410    0.00000       Uiso       1.00
       H46          H  0.0494197  0.2621959  0.2800320    0.00000       Uiso       1.00
       H47          H  0.7211870  0.0977203  0.1096122    0.00000       Uiso       1.00
       H48          H  0.6953110  0.0580038  0.0838683    0.00000       Uiso       1.00
       H49          H  0.7536235  0.0046436  0.1454527    0.00000       Uiso       1.00
       H50          H  0.7798097  0.0446361  0.1713860    0.00000       Uiso       1.00
       H51          H  0.2167793  0.4288298  0.1136854    0.00000       Uiso       1.00
       H52          H  0.2449804  0.4666509  0.0872595    0.00000       Uiso       1.00
       H53          H  0.1814813  0.5238080  0.1272792    0.00000       Uiso       1.00
       H54          H  0.1529343  0.4857779  0.1535421    0.00000       Uiso       1.00
       H55          H  0.1916027  0.0979918  0.3484776    0.00000       Uiso       1.00
       H56          H  0.2265936  0.0704113  0.3847536    0.00000       Uiso       1.00
       H57          H  0.1554331  0.0332385  0.4454610    0.00000       Uiso       1.00
       H58          H  0.1205729  0.0610400  0.4097892    0.00000       Uiso       1.00
       H59          H  0.7392170  0.4136530  0.4111811    0.00000       Uiso       1.00
       H60          H  0.7112744  0.4448011  0.4502537    0.00000       Uiso       1.00
       H61          H  0.7659680  0.5122498  0.4148099    0.00000       Uiso       1.00
       H62          H  0.7936443  0.4813007  0.3756524    0.00000       Uiso       1.00
       H63          H  0.7352263  0.5107211  0.4811019    0.00000       Uiso       1.00
       H64          H  0.7031127  0.4898382  0.4788983    0.00000       Uiso       1.00
       H65          H  0.3354419  0.5770034  0.2037646    0.00000       Uiso       1.00
       H66          H  0.1377736  0.3215390  0.2016103    0.00000       Uiso       1.00
       H67          H  0.1755619  0.3541210  0.1832951    0.00000       Uiso       1.00
       H68          H  0.1092157  0.4138156  0.1570810    0.00000       Uiso       1.00
       H69          H  0.0714629  0.3809502  0.1740451    0.00000       Uiso       1.00
       H70          H  0.0224469  0.1453578  0.3049457    0.00000       Uiso       1.00
       H71          H  0.0466297  0.1072644  0.3367226    0.00000       Uiso       1.00
       H72          H  0.1305438  0.1463188  0.3187102    0.00000       Uiso       1.00
       H73          H  0.1064973  0.1839236  0.2867103    0.00000       Uiso       1.00
       H74          H  0.8203533  0.3346944  0.3257321    0.00000       Uiso       1.00
       H75          H  0.7954284  0.3729478  0.3543345    0.00000       Uiso       1.00
       H76          H  0.8474521  0.4295218  0.2891874    0.00000       Uiso       1.00
       H77          H  0.8724570  0.3912212  0.2608286    0.00000       Uiso       1.00
       H78          H  0.8565825  0.1496491  0.2098818    0.00000       Uiso       1.00
       H79          H  0.8195948  0.1154607  0.1918916    0.00000       Uiso       1.00
       H80          H  0.7640529  0.1796077  0.1483230    0.00000       Uiso       1.00
       H81          H  0.8008702  0.2135933  0.1664767    0.00000       Uiso       1.00
       H82          H  0.1899727  0.3982766  0.1526024    0.00000       Uiso       1.00
       H83          H  0.7474036  0.1318219  0.1418289    0.00000       Uiso       1.00
       H84          H  0.4711770  0.7336116  0.2946608    0.00000       Uiso       1.00
       H85          H  0.4642206  0.7949919  0.2946358    0.00000       Uiso       1.00
       H86          H  0.4416328  0.7258050  0.2148592    0.00000       Uiso       1.00
       H87          H  0.4669657  0.7328599  0.1775558    0.00000       Uiso       1.00
       H88          H  0.4331328  0.7517681  0.1799634    0.00000       Uiso       1.00
       H89          H  0.5072564  0.7032505  0.2856789    0.00000       Uiso       1.00
       H90          H  0.5425963  0.6675312  0.2934764    0.00000       Uiso       1.00
       H91          H  0.6019673  0.7242768  0.3490886    0.00000       Uiso       1.00
       H92          H  0.5670010  0.7602441  0.3405493    0.00000       Uiso       1.00
       H93          H  0.5460047  0.7673920  0.2494814    0.00000       Uiso       1.00
       H94          H  0.5696102  0.8082021  0.2254334    0.00000       Uiso       1.00
       H95          H  0.5322226  0.8556293  0.3145675    0.00000       Uiso       1.00
       H96          H  0.5076299  0.8149511  0.3376887    0.00000       Uiso       1.00
       H97          H  0.4665683  0.7968701  0.1779428    0.00000       Uiso       1.00
       H98          H  0.5006118  0.7782360  0.1815296    0.00000       Uiso       1.00
       H99          H  0.4919953  0.8038051  0.2164032    0.00000       Uiso       1.00
      H100          H  0.3683019  0.7683389  0.3365177    0.00000       Uiso       1.00
      H101          H  0.3332253  0.8044574  0.3429374    0.00000       Uiso       1.00
      H102          H  0.3937672  0.8615609  0.2928950    0.00000       Uiso       1.00
      H103          H  0.4289085  0.8258225  0.2866637    0.00000       Uiso       1.00
      H104          H  0.4283451  0.7140140  0.3378130    0.00000       Uiso       1.00
      H105          H  0.4033282  0.6732104  0.3149237    0.00000       Uiso       1.00
      H106          H  0.3646602  0.7199373  0.2238959    0.00000       Uiso       1.00
      H107          H  0.3886738  0.7609181  0.2477470    0.00000       Uiso       1.00
      H108          H  0.7065834  0.5912173  0.4158146    0.00000       Uiso       1.00
      H109          H  0.7334042  0.5561740  0.4507087    0.00000       Uiso       1.00
      H110          H  0.6675965  0.4961284  0.4190033    0.00000       Uiso       1.00
      H111          H  0.6403074  0.5314829  0.3845536    0.00000       Uiso       1.00
      H112          H  0.2247711  0.9544622  0.3596164    0.00000       Uiso       1.00
      H113          H  0.2022532  0.9791208  0.4170559    0.00000       Uiso       1.00
      H114          H  0.2762893  0.0182175  0.4516210    0.00000       Uiso       1.00
      H115          H  0.2962272  0.9701262  0.4352224    0.00000       Uiso       1.00
      H116          H  0.2488556  0.6070055  0.1472545    0.00000       Uiso       1.00
      H117          H  0.2206220  0.5763837  0.1055007    0.00000       Uiso       1.00
      H118          H  0.2802186  0.5109511  0.1316967    0.00000       Uiso       1.00
      H119          H  0.3084312  0.5414786  0.1732995    0.00000       Uiso       1.00
      H120          H  0.6886412  0.9195448  0.1574304    0.00000       Uiso       1.00
      H121          H  0.7184526  0.9492149  0.1175584    0.00000       Uiso       1.00
      H122          H  0.6573207  0.0147656  0.1321056    0.00000       Uiso       1.00
      H123          H  0.6275248  0.9851421  0.1719577    0.00000       Uiso       1.00
      H124          H  0.6922169  0.0089306  0.0701617    0.00000       Uiso       1.00
      H125          H  0.7250423  0.9906150  0.0793854    0.00000       Uiso       1.00
      H126          H  0.2307452  0.0477485  0.4569155    0.00000       Uiso       1.00
      H127          H  0.2051593  0.0201685  0.4637752    0.00000       Uiso       1.00
      H128          H  0.6004214  0.9505358  0.2037427    0.00000       Uiso       1.00
      C171          C  0.7726910  0.0217352  0.8957290    0.00000       Uiso       1.00
      C172          C  0.6937991  0.3584211  0.6743971    0.00000       Uiso       1.00
      C173          C  0.7146651  0.3787488  0.6625302    0.00000       Uiso       1.00
      C174          C  0.7052741  0.4035156  0.6437750    0.00000       Uiso       1.00
      C175          C  0.6741891  0.4078235  0.6389222    0.00000       Uiso       1.00
      C176          C  0.6533306  0.3873853  0.6505603    0.00000       Uiso       1.00
      C177          C  0.6130940  0.1473462  0.7587047    0.00000       Uiso       1.00
      C178          C  0.6264921  0.1234885  0.7750483    0.00000       Uiso       1.00
      C179          C  0.6572376  0.1234174  0.7854086    0.00000       Uiso       1.00
      C180          C  0.6741957  0.1479993  0.7781968    0.00000       Uiso       1.00
      C181          C  0.6607994  0.1718510  0.7618824    0.00000       Uiso       1.00
      C182          C  0.4013606  0.3621036  0.7578611    0.00000       Uiso       1.00
      C183          C  0.3868880  0.3853747  0.7733317    0.00000       Uiso       1.00
      C184          C  0.4021260  0.4112619  0.7783329    0.00000       Uiso       1.00
      C185          C  0.4320803  0.4131851  0.7661544    0.00000       Uiso       1.00
      C186          C  0.4466189  0.3898260  0.7509081    0.00000       Uiso       1.00
      C187          C  0.4116451  0.1476358  0.6586474    0.00000       Uiso       1.00
      C188          C  0.3904584  0.1268481  0.6484162    0.00000       Uiso       1.00
      C189          C  0.3595042  0.1314295  0.6526737    0.00000       Uiso       1.00
      C190          C  0.3505943  0.1568510  0.6694911    0.00000       Uiso       1.00
      C191          C  0.3717895  0.1775330  0.6799667    0.00000       Uiso       1.00
      C192          C  0.7267692  0.4224414  0.6294708    0.00000       Uiso       1.00
      C193          C  0.3376230  0.1121569  0.6393855    0.00000       Uiso       1.00
      C194          C  0.8248677 -0.0012533  0.8902916    0.00000       Uiso       1.00
      C195          C  0.2759194  0.0058583  0.5410198    0.00000       Uiso       1.00
      C196          C  0.6698731  0.0995405  0.8029477    0.00000       Uiso       1.00
      C197          C  0.5195091  0.2582803  0.7159294    0.00000       Uiso       1.00
      C198          C  0.5463773  0.2796060  0.7150999    0.00000       Uiso       1.00
      C199          C  0.5335947  0.2706039  0.7784933    0.00000       Uiso       1.00
      C200          C  0.5488374  0.2492446  0.8058814    0.00000       Uiso       1.00
      C201          C  0.4675172  0.2400417  0.6889272    0.00000       Uiso       1.00
      C202          C  0.4727088  0.2126834  0.7035309    0.00000       Uiso       1.00
      C203          C  0.4514143  0.1909279  0.6992751    0.00000       Uiso       1.00
      C204          C  0.4236289  0.1955155  0.6804286    0.00000       Uiso       1.00
      C205          C  0.4175850  0.2228803  0.6672751    0.00000       Uiso       1.00
      C206          C  0.4388791  0.2444616  0.6717253    0.00000       Uiso       1.00
      C207          C  0.4903099  0.2641706  0.6904223    0.00000       Uiso       1.00
      C208          C  0.3269097  0.0681862  0.6055819    0.00000       Uiso       1.00
        N9          N  0.3446919  0.0870783  0.6242623    0.00000       Uiso       1.00
      C209          C  0.4758534  0.2906169  0.7052262    0.00000       Uiso       1.00
      C210          C  0.4575456  0.2896902  0.7381470    0.00000       Uiso       1.00
      C211          C  0.4432638  0.3136152  0.7518485    0.00000       Uiso       1.00
      C212          C  0.4465140  0.3397784  0.7332220    0.00000       Uiso       1.00
      C213          C  0.4651384  0.3410518  0.7007697    0.00000       Uiso       1.00
      C214          C  0.4795810  0.3170623  0.6873038    0.00000       Uiso       1.00
      C215          C  0.5183831  0.2941244  0.8013901    0.00000       Uiso       1.00
       N10          N  0.3616420  0.4323298  0.8124429    0.00000       Uiso       1.00
      C216          C  0.3456743  0.4509172  0.8328415    0.00000       Uiso       1.00
      C217          C  0.5979376  0.2964634  0.6875448    0.00000       Uiso       1.00
      C218          C  0.6262704  0.2911917  0.6714089    0.00000       Uiso       1.00
      C219          C  0.6476057  0.3124748  0.6655691    0.00000       Uiso       1.00
      C220          C  0.6419291  0.3404149  0.6761110    0.00000       Uiso       1.00
      C221          C  0.6145245  0.3458511  0.6940741    0.00000       Uiso       1.00
      C222          C  0.5931756  0.3244130  0.6997135    0.00000       Uiso       1.00
      C223          C  0.5747752  0.2727139  0.6899906    0.00000       Uiso       1.00
      C224          C  0.7368110  0.4661133  0.5947819    0.00000       Uiso       1.00
       N11          N  0.7193712  0.4473168  0.6134641    0.00000       Uiso       1.00
      C225          C  0.5888584  0.2461292  0.7059109    0.00000       Uiso       1.00
      C226          C  0.5836466  0.2194593  0.6890953    0.00000       Uiso       1.00
      C227          C  0.5971071  0.1951724  0.7040389    0.00000       Uiso       1.00
      C228          C  0.6163416  0.1963969  0.7368190    0.00000       Uiso       1.00
      C229          C  0.6214296  0.2228309  0.7540776    0.00000       Uiso       1.00
      C230          C  0.6079769  0.2470366  0.7389975    0.00000       Uiso       1.00
       N12          N  0.6994174  0.0979802  0.8117179    0.00000       Uiso       1.00
      C231          C  0.7154609  0.0781703  0.8306549    0.00000       Uiso       1.00
        O9          O  0.5117602  0.2558154  0.7555271    0.00000       Uiso       1.00
       O10          O  0.5609479  0.2688496  0.6519928    0.00000       Uiso       1.00
       O11          O  0.5555871  0.2831752  0.7544225    0.00000       Uiso       1.00
       O12          O  0.5031255  0.2676560  0.6524121    0.00000       Uiso       1.00
      C232          C  0.2993679  0.0750774  0.5875011    0.00000       Uiso       1.00
      C233          C  0.2827406  0.0548172  0.5668030    0.00000       Uiso       1.00
      C234          C  0.2930909  0.0271084  0.5637946    0.00000       Uiso       1.00
      C235          C  0.3203702  0.0201217  0.5824518    0.00000       Uiso       1.00
      C236          C  0.3371834  0.0404977  0.6028389    0.00000       Uiso       1.00
      C237          C  0.7640897  0.4592631  0.5773751    0.00000       Uiso       1.00
      C238          C  0.7806380  0.4796697  0.5574874    0.00000       Uiso       1.00
      C239          C  0.7265477  0.4938230  0.5917526    0.00000       Uiso       1.00
      C240          C  0.7468328  0.0813130  0.8304697    0.00000       Uiso       1.00
      C241          C  0.7653074  0.0625663  0.8508253    0.00000       Uiso       1.00
      C242          C  0.7529054  0.0401885  0.8721876    0.00000       Uiso       1.00
      C243          C  0.7214761  0.0366673  0.8716321    0.00000       Uiso       1.00
      C244          C  0.7029816  0.0553991  0.8511679    0.00000       Uiso       1.00
      C245          C  0.3188755  0.4407760  0.8487583    0.00000       Uiso       1.00
      C246          C  0.3017713  0.4577814  0.8726991    0.00000       Uiso       1.00
      C247          C  0.3110120  0.4854857  0.8813215    0.00000       Uiso       1.00
      C248          C  0.3372062  0.4960234  0.8640345    0.00000       Uiso       1.00
      C249          C  0.3543547  0.4789882  0.8401188    0.00000       Uiso       1.00
      C250          C  0.4026191  0.1736495  0.6736435    0.00000       Uiso       1.00
      C251          C  0.4316770  0.3636902  0.7469890    0.00000       Uiso       1.00
      C252          C  0.6627736  0.3619795  0.6676402    0.00000       Uiso       1.00
      C253          C  0.6299337  0.1720881  0.7521563    0.00000       Uiso       1.00
      C254          C  0.3886343  0.4344796  0.7956725    0.00000       Uiso       1.00
      H129          H  0.7597411  0.0078790  0.9143761    0.00000       Uiso       1.00
      H130          H  0.7857549  0.0354999  0.9149425    0.00000       Uiso       1.00
      H131          H  0.7015862  0.3407709  0.6877570    0.00000       Uiso       1.00
      H132          H  0.7369153  0.3750587  0.6674187    0.00000       Uiso       1.00
      H133          H  0.6663289  0.4256757  0.6262048    0.00000       Uiso       1.00
      H134          H  0.6310993  0.3910620  0.6455791    0.00000       Uiso       1.00
      H135          H  0.5907190  0.1465389  0.7520334    0.00000       Uiso       1.00
      H136          H  0.6133911  0.1061261  0.7795267    0.00000       Uiso       1.00
      H137          H  0.6965383  0.1489447  0.7849551    0.00000       Uiso       1.00
      H138          H  0.6739311  0.1891433  0.7571220    0.00000       Uiso       1.00
      H139          H  0.3894031  0.3438455  0.7546724    0.00000       Uiso       1.00
      H140          H  0.3650467  0.3830580  0.7810589    0.00000       Uiso       1.00
      H141          H  0.4438333  0.4316129  0.7687258    0.00000       Uiso       1.00
      H142          H  0.4684820  0.3920540  0.7432074    0.00000       Uiso       1.00
      H143          H  0.4337521  0.1437575  0.6541368    0.00000       Uiso       1.00
      H144          H  0.3979651  0.1085338  0.6371133    0.00000       Uiso       1.00
      H145          H  0.3284679  0.1607771  0.6738635    0.00000       Uiso       1.00
      H146          H  0.3643802  0.1956828  0.6919039    0.00000       Uiso       1.00
      H147          H  0.7488190  0.4169801  0.6308202    0.00000       Uiso       1.00
      H148          H  0.3155954  0.1175902  0.6404945    0.00000       Uiso       1.00
      H149          H  0.8227507 -0.0030458  0.9215087    0.00000       Uiso       1.00
      H150          H  0.2299073  0.0151332  0.5885043    0.00000       Uiso       1.00
      H151          H  0.2593209  0.0159075  0.5222785    0.00000       Uiso       1.00
      H152          H  0.6562091  0.0829680  0.8094637    0.00000       Uiso       1.00
      H153          H  0.5283887  0.2381777  0.7075002    0.00000       Uiso       1.00
      H154          H  0.5371464  0.2994354  0.7054267    0.00000       Uiso       1.00
      H155          H  0.5581511  0.2321643  0.7893126    0.00000       Uiso       1.00
      H156          H  0.5326387  0.2403736  0.8257570    0.00000       Uiso       1.00
      H157          H  0.5668963  0.2592926  0.8225346    0.00000       Uiso       1.00
      H158          H  0.4921544  0.2077420  0.7174951    0.00000       Uiso       1.00
      H159          H  0.4564712  0.1715734  0.7100719    0.00000       Uiso       1.00
      H160          H  0.3977044  0.2273912  0.6536919    0.00000       Uiso       1.00
      H161          H  0.4330909  0.2637998  0.6616842    0.00000       Uiso       1.00
      H162          H  0.4542989  0.2712916  0.7526343    0.00000       Uiso       1.00
      H163          H  0.4305018  0.3116732  0.7758816    0.00000       Uiso       1.00
      H164          H  0.4682442  0.3595158  0.6863630    0.00000       Uiso       1.00
      H165          H  0.4930175  0.3192803  0.6640221    0.00000       Uiso       1.00
      H166          H  0.5345125  0.3044147  0.8208165    0.00000       Uiso       1.00
      H167          H  0.5000996  0.2855709  0.8183258    0.00000       Uiso       1.00
      H168          H  0.5094107  0.3098728  0.7817025    0.00000       Uiso       1.00
      H169          H  0.6317298  0.2714412  0.6630532    0.00000       Uiso       1.00
      H170          H  0.6672158  0.3073022  0.6528071    0.00000       Uiso       1.00
      H171          H  0.6097547  0.3656389  0.7031411    0.00000       Uiso       1.00
      H172          H  0.5739622  0.3300359  0.7127272    0.00000       Uiso       1.00
      H173          H  0.5696778  0.2172653  0.6656533    0.00000       Uiso       1.00
      H174          H  0.5927871  0.1765050  0.6905485    0.00000       Uiso       1.00
      H175          H  0.6348856  0.2247296  0.7781297    0.00000       Uiso       1.00
      H176          H  0.6123827  0.2656159  0.7526280    0.00000       Uiso       1.00
      H177          H  0.2913400  0.0949683  0.5886094    0.00000       Uiso       1.00
      H178          H  0.2630204  0.0605172  0.5537958    0.00000       Uiso       1.00
      H179          H  0.3570625  0.0349796  0.6156368    0.00000       Uiso       1.00
      H180          H  0.7720258  0.4393223  0.5785445    0.00000       Uiso       1.00
      H181          H  0.8002014  0.4740158  0.5450441    0.00000       Uiso       1.00
      H182          H  0.7067751  0.4992974  0.6038562    0.00000       Uiso       1.00
      H183          H  0.7565219  0.0974793  0.8156718    0.00000       Uiso       1.00
      H184          H  0.7879822  0.0655586  0.8503299    0.00000       Uiso       1.00
      H185          H  0.7117707  0.0205520  0.8864707    0.00000       Uiso       1.00
      H186          H  0.6803734  0.0523913  0.8519220    0.00000       Uiso       1.00
      H187          H  0.3117691  0.4206874  0.8434575    0.00000       Uiso       1.00
      H188          H  0.2826727  0.4496147  0.8841869    0.00000       Uiso       1.00
      H189          H  0.3733221  0.4872498  0.8285517    0.00000       Uiso       1.00
      H190          H  0.2771712  0.4904092  0.9234265    0.00000       Uiso       1.00
      H191          H  0.3999880  0.4531592  0.7966056    0.00000       Uiso       1.00
      C255          C  0.8834041  0.5991495  0.6500081    0.00000       Uiso       1.00
      C256          C  0.1881326  0.9286331  0.6542963    0.00000       Uiso       1.00
      C257          C  0.0515238  0.7562948  0.7597734    0.00000       Uiso       1.00
      C258          C  0.0204188  0.7707905  0.7604609    0.00000       Uiso       1.00
      C259          C  0.0341806  0.7642560  0.6966194    0.00000       Uiso       1.00
      C260          C  0.0216417  0.7405204  0.6704255    0.00000       Uiso       1.00
      C261          C  0.1033298  0.7461758  0.7920495    0.00000       Uiso       1.00
      C262          C  0.1075543  0.7223794  0.7683573    0.00000       Uiso       1.00
      C263          C  0.1295827  0.7023751  0.7766979    0.00000       Uiso       1.00
      C264          C  0.1487924  0.7051429  0.8092711    0.00000       Uiso       1.00
      C265          C  0.1452564  0.7288982  0.8328519    0.00000       Uiso       1.00
      C266          C  0.1233415  0.7489084  0.8241990    0.00000       Uiso       1.00
      C267          C  0.0801195  0.7686188  0.7834743    0.00000       Uiso       1.00
      C268          C  0.2487873  0.5753298  0.8626366    0.00000       Uiso       1.00
       N13          N  0.2317665  0.5967628  0.8495110    0.00000       Uiso       1.00
      C269          C  0.0992613  0.7912979  0.7643454    0.00000       Uiso       1.00
      C270          C  0.1095839  0.7890114  0.7260153    0.00000       Uiso       1.00
      C271          C  0.1254378  0.8107073  0.7076758    0.00000       Uiso       1.00
      C272          C  0.1332142  0.8355039  0.7276690    0.00000       Uiso       1.00
      C273          C  0.1264205  0.8367891  0.7670958    0.00000       Uiso       1.00
      C274          C  0.1106032  0.8149361  0.7849240    0.00000       Uiso       1.00
      C275          C  0.0454803  0.7894080  0.6725132    0.00000       Uiso       1.00
       N14          N  0.2120255  0.9267067  0.6312032    0.00000       Uiso       1.00
      C276          C  0.2268670  0.9466759  0.6111426    0.00000       Uiso       1.00
      C277          C  0.9690371  0.7804809  0.7922634    0.00000       Uiso       1.00
      C278          C  0.9465317  0.7750726  0.8198573    0.00000       Uiso       1.00
      C279          C  0.9241428  0.7945116  0.8280421    0.00000       Uiso       1.00
      C280          C  0.9230881  0.8205432  0.8088151    0.00000       Uiso       1.00
      C281          C  0.9446716  0.8260363  0.7805907    0.00000       Uiso       1.00
      C282          C  0.9668490  0.8064609  0.7724307    0.00000       Uiso       1.00
      C283          C  0.9930125  0.7586277  0.7850910    0.00000       Uiso       1.00
      C284          C  0.8253635  0.9507183  0.8594062    0.00000       Uiso       1.00
       N15          N  0.8422266  0.9279463  0.8525132    0.00000       Uiso       1.00
      C285          C  0.9752977  0.7345508  0.7659670    0.00000       Uiso       1.00
      C286          C  0.9697632  0.7083023  0.7838655    0.00000       Uiso       1.00
      C287          C  0.9543257  0.6862682  0.7651241    0.00000       Uiso       1.00
      C288          C  0.9422400  0.6896254  0.7276121    0.00000       Uiso       1.00
      C289          C  0.9452989  0.7162365  0.7103257    0.00000       Uiso       1.00
      C290          C  0.9608536  0.7380583  0.7294233    0.00000       Uiso       1.00
       N16          N  0.8576573  0.6020845  0.6293680    0.00000       Uiso       1.00
      C291          C  0.8413522  0.5834047  0.6081603    0.00000       Uiso       1.00
       O13          O  0.0577450  0.7531486  0.7198708    0.00000       Uiso       1.00
       O14          O  0.0036489  0.7541787  0.8248315    0.00000       Uiso       1.00
       O15          O  0.0114239  0.7738798  0.7210748    0.00000       Uiso       1.00
       O16          O  0.0698121  0.7759815  0.8220167    0.00000       Uiso       1.00
      C292          C  0.2746545  0.5785977  0.8863562    0.00000       Uiso       1.00
      C293          C  0.2898833  0.5551049  0.9007651    0.00000       Uiso       1.00
      C294          C  0.2797689  0.5277136  0.8918232    0.00000       Uiso       1.00
      C295          C  0.2545281  0.5244913  0.8670515    0.00000       Uiso       1.00
      C296          C  0.2391934  0.5480031  0.8528097    0.00000       Uiso       1.00
      C297          C  0.7945934  0.9527910  0.8501616    0.00000       Uiso       1.00
      C298          C  0.7789640  0.9777980  0.8554823    0.00000       Uiso       1.00
      C299          C  0.7937025  1.0038174  0.8705525    0.00000       Uiso       1.00
      C300          C  0.8404208  0.9734392  0.8771774    0.00000       Uiso       1.00
      C301          C  0.8162457  0.5938594  0.5878502    0.00000       Uiso       1.00
      C302          C  0.7986031  0.5762948  0.5639327    0.00000       Uiso       1.00
      C303          C  0.8055880  0.5477084  0.5597965    0.00000       Uiso       1.00
      C304          C  0.8303684  0.5371099  0.5808104    0.00000       Uiso       1.00
      C305          C  0.8480026  0.5546720  0.6047086    0.00000       Uiso       1.00
      C306          C  0.2509146  0.9377185  0.5887460    0.00000       Uiso       1.00
      C307          C  0.2671357  0.9568442  0.5661954    0.00000       Uiso       1.00
      C308          C  0.2597194  0.9854980  0.5655990    0.00000       Uiso       1.00
      C309          C  0.2358419  0.9945247  0.5883695    0.00000       Uiso       1.00
      C310          C  0.2196585  0.9754168  0.6108939    0.00000       Uiso       1.00
      C311          C  0.1707793  0.6849192  0.8181265    0.00000       Uiso       1.00
      C312          C  0.1473440  0.8583388  0.7092236    0.00000       Uiso       1.00
      C313          C  0.9012604  0.8406686  0.8171639    0.00000       Uiso       1.00
      C314          C  0.9273023  0.6672388  0.7084198    0.00000       Uiso       1.00
      C315          C  0.8704928  0.8335769  0.8172548    0.00000       Uiso       1.00
      C316          C  0.8488712  0.8539859  0.8244472    0.00000       Uiso       1.00
      C317          C  0.8572736  0.8820987  0.8320342    0.00000       Uiso       1.00
      C318          C  0.8881246  0.8890378  0.8325767    0.00000       Uiso       1.00
      C319          C  0.9097127  0.8686917  0.8252069    0.00000       Uiso       1.00
      C320          C  0.9397655  0.6401646  0.7080111    0.00000       Uiso       1.00
      C321          C  0.9250468  0.6178588  0.6889449    0.00000       Uiso       1.00
      C322          C  0.8973813  0.6218062  0.6694004    0.00000       Uiso       1.00
      C323          C  0.8848426  0.6488513  0.6699043    0.00000       Uiso       1.00
      C324          C  0.8995264  0.6711359  0.6890951    0.00000       Uiso       1.00
      C325          C  0.1723842  0.8546693  0.6855853    0.00000       Uiso       1.00
      C326          C  0.1860893  0.8776809  0.6673887    0.00000       Uiso       1.00
      C327          C  0.1751799  0.9051107  0.6722421    0.00000       Uiso       1.00
      C328          C  0.1501568  0.9087234  0.6959099    0.00000       Uiso       1.00
      C329          C  0.1364505  0.8857543  0.7140058    0.00000       Uiso       1.00
      C330          C  0.1639683  0.6559325  0.8168664    0.00000       Uiso       1.00
      C331          C  0.1856263  0.6359056  0.8268132    0.00000       Uiso       1.00
      C332          C  0.2148831  0.6441466  0.8385939    0.00000       Uiso       1.00
      C333          C  0.2218661  0.6730776  0.8390806    0.00000       Uiso       1.00
      C334          C  0.2002659  0.6930670  0.8289566    0.00000       Uiso       1.00
      C335          C  0.8351906  0.9022979  0.8383851    0.00000       Uiso       1.00
      C336          C  0.2367068  0.6247442  0.8505101    0.00000       Uiso       1.00
      C337          C  0.7705110  0.5075079  0.5546920    0.00000       Uiso       1.00
      C338          C  0.7432997  0.5143346  0.5722596    0.00000       Uiso       1.00
      C339          C  0.2944629  0.5028077  0.9092131    0.00000       Uiso       1.00
      C340          C  0.7878556  0.5291390  0.5334693    0.00000       Uiso       1.00
      H192          H  0.8933215  0.5799988  0.6512327    0.00000       Uiso       1.00
      H193          H  0.1789213  0.9477926  0.6587874    0.00000       Uiso       1.00
      H194          H  0.0475765  0.7349229  0.7690575    0.00000       Uiso       1.00
      H195          H  0.0250950  0.7921110  0.7692814    0.00000       Uiso       1.00
      H196          H  0.0146404  0.7226986  0.6878871    0.00000       Uiso       1.00
      H197          H  0.0387190  0.7334644  0.6507364    0.00000       Uiso       1.00
      H198          H  0.0023881  0.7477684  0.6535511    0.00000       Uiso       1.00
      H199          H  0.0948097  0.7191341  0.7441386    0.00000       Uiso       1.00
      H200          H  0.1315898  0.6857775  0.7583812    0.00000       Uiso       1.00
      H201          H  0.1585559  0.7318580  0.8568452    0.00000       Uiso       1.00
      H202          H  0.1222228  0.7658353  0.8420525    0.00000       Uiso       1.00
      H203          H  0.1060114  0.7712380  0.7104566    0.00000       Uiso       1.00
      H204          H  0.1310302  0.8082537  0.6794605    0.00000       Uiso       1.00
      H205          H  0.1330868  0.8536482  0.7834010    0.00000       Uiso       1.00
      H206          H  0.1079767  0.8167026  0.8138366    0.00000       Uiso       1.00
      H207          H  0.0639816  0.7831885  0.6544883    0.00000       Uiso       1.00
      H208          H  0.0531508  0.8063089  0.6914656    0.00000       Uiso       1.00
      H209          H  0.0275077  0.7973861  0.6539862    0.00000       Uiso       1.00
      H210          H  0.9463314  0.7565499  0.8346635    0.00000       Uiso       1.00
      H211          H  0.9087617  0.7895419  0.8484693    0.00000       Uiso       1.00
      H212          H  0.9443387  0.8444090  0.7653879    0.00000       Uiso       1.00
      H213          H  0.9812195  0.8118633  0.7512274    0.00000       Uiso       1.00
      H214          H  0.9761410  0.7045181  0.8114755    0.00000       Uiso       1.00
      H215          H  0.9516598  0.6677314  0.7795543    0.00000       Uiso       1.00
      H216          H  0.9362945  0.7200284  0.6835420    0.00000       Uiso       1.00
      H217          H  0.9610777  0.7570087  0.7158890    0.00000       Uiso       1.00
      H218          H  0.2824733  0.5979962  0.8939636    0.00000       Uiso       1.00
      H219          H  0.3082912  0.5581924  0.9182370    0.00000       Uiso       1.00
      H220          H  0.2468717  0.5049384  0.8596786    0.00000       Uiso       1.00
      H221          H  0.2207228  0.5449894  0.8353902    0.00000       Uiso       1.00
      H222          H  0.7831352  0.9360896  0.8386899    0.00000       Uiso       1.00
      H223          H  0.7568600  0.9783229  0.8474359    0.00000       Uiso       1.00
      H224          H  0.8629109  0.9723446  0.8828575    0.00000       Uiso       1.00
      H225          H  0.8106946  0.6145010  0.5901080    0.00000       Uiso       1.00
      H226          H  0.7806693  0.5845987  0.5494138    0.00000       Uiso       1.00
      H227          H  0.8359106  0.5164787  0.5786142    0.00000       Uiso       1.00
      H228          H  0.8657361  0.5461786  0.6192792    0.00000       Uiso       1.00
      H229          H  0.2567424  0.9170738  0.5885228    0.00000       Uiso       1.00
      H230          H  0.2843224  0.9496484  0.5500754    0.00000       Uiso       1.00
      H231          H  0.2025556  0.9828533  0.6268183    0.00000       Uiso       1.00
      H232          H  0.2913565  0.9953297  0.5219477    0.00000       Uiso       1.00
      H233          H  0.8634946  0.8135111  0.8116433    0.00000       Uiso       1.00
      H234          H  0.8268109  0.8480457  0.8240385    0.00000       Uiso       1.00
      H235          H  0.8953168  0.9090560  0.8380721    0.00000       Uiso       1.00
      H236          H  0.9317843  0.8745943  0.8257976    0.00000       Uiso       1.00
      H237          H  0.9598985  0.6364039  0.7214144    0.00000       Uiso       1.00
      H238          H  0.9349195  0.5986393  0.6893970    0.00000       Uiso       1.00
      H239          H  0.8648174  0.6526990  0.6563157    0.00000       Uiso       1.00
      H240          H  0.8895398  0.6902857  0.6889700    0.00000       Uiso       1.00
      H241          H  0.1810218  0.8351862  0.6815512    0.00000       Uiso       1.00
      H242          H  0.2041514  0.8740935  0.6505445    0.00000       Uiso       1.00
      H243          H  0.1415084  0.9281859  0.7002022    0.00000       Uiso       1.00
      H244          H  0.1182048  0.8893012  0.7305795    0.00000       Uiso       1.00
      H245          H  0.1429546  0.6490576  0.8091258    0.00000       Uiso       1.00
      H246          H  0.1795990  0.6152096  0.8256931    0.00000       Uiso       1.00
      H247          H  0.2428349  0.6799868  0.8470146    0.00000       Uiso       1.00
      H248          H  0.2063874  0.7137586  0.8295855    0.00000       Uiso       1.00
      H249          H  0.8133169  0.8972933  0.8324253    0.00000       Uiso       1.00
      H250          H  0.2568693  0.6321791  0.8607032    0.00000       Uiso       1.00
      H251          H  0.3283089  1.0001729  0.5809900    0.00000       Uiso       1.00
      H252          H  0.7353960  0.5343093  0.5707511    0.00000       Uiso       1.00
      H253          H  0.3442403  0.5161244  0.8692636    0.00000       Uiso       1.00
      H254          H  0.3102968  0.5090489  0.9320897    0.00000       Uiso       1.00
      H255          H  0.7723976  0.5412555  0.5154806    0.00000       Uiso       1.00
      H256          H  0.8032123  0.5193934  0.5135073    0.00000       Uiso       1.00
      C341          C  0.4858447  0.2699618  0.6171229    0.00000       Uiso       1.00
      H257          H  0.5010002  0.2763436  0.5944492    0.00000       Uiso       1.00
      H258          H  0.4760533  0.2497795  0.6090189    0.00000       Uiso       1.00
      H259          H  0.4683979  0.2855869  0.6189386    0.00000       Uiso       1.00
      C342          C  0.5774584  0.2654876  0.6170973    0.00000       Uiso       1.00
      H260          H  0.5617521  0.2588049  0.5944727    0.00000       Uiso       1.00
      H261          H  0.5874116  0.2853377  0.6082003    0.00000       Uiso       1.00
      H262          H  0.5947090  0.2496804  0.6199734    0.00000       Uiso       1.00
      C343          C  0.4221822  0.7635255  0.3839405    0.00000       Uiso       1.00
      H263          H  0.4374346  0.7574025  0.4072317    0.00000       Uiso       1.00
      H264          H  0.4127701  0.7836820  0.3914627    0.00000       Uiso       1.00
      H265          H  0.4044514  0.7477751  0.3816750    0.00000       Uiso       1.00
      C344          C  0.5139077  0.7657866  0.3848655    0.00000       Uiso       1.00
      H266          H  0.4987076  0.7720361  0.4073552    0.00000       Uiso       1.00
      H267          H  0.5234427  0.7457417  0.3932292    0.00000       Uiso       1.00
      H268          H  0.5315321  0.7816156  0.3830450    0.00000       Uiso       1.00
      C345          C  1.0039068  0.2506899  0.1518889    0.00000       Uiso       1.00
      H269          H  0.9862847  0.2429828  0.1324386    0.00000       Uiso       1.00
      H270          H  1.0148883  0.2683287  0.1378690    0.00000       Uiso       1.00
      H271          H  1.0197753  0.2338507  0.1565182    0.00000       Uiso       1.00
      C346          C  0.9452968  0.3078681  0.1795808    0.00000       Uiso       1.00
      H272          H  0.9324363  0.3162197  0.1552770    0.00000       Uiso       1.00
      H273          H  0.9441185  0.3225700  0.2034458    0.00000       Uiso       1.00
      H274          H  0.9684336  0.3067361  0.1707008    0.00000       Uiso       1.00
      C347          C  0.0208302  0.7308896  0.8394759    0.00000       Uiso       1.00
      H275          H  0.0079231  0.7207077  0.8619497    0.00000       Uiso       1.00
      H276          H  0.0261389  0.7152621  0.8180566    0.00000       Uiso       1.00
      H277          H  0.0414703  0.7383037  0.8531471    0.00000       Uiso       1.00
      C348          C  0.0547560  0.8015274  0.8323754    0.00000       Uiso       1.00
      H278          H  0.0661579  0.8102272  0.8577414    0.00000       Uiso       1.00
      H279          H  0.0545522  0.8174424  0.8098688    0.00000       Uiso       1.00
      H280          H  0.0318486  0.7971624  0.8404270    0.00000       Uiso       1.00
