data_20
_audit_creation_date              0000-00-00
_audit_creation_method            'LanYouShi'
_symmetry_space_group_name_H-M    'P1'
_cell_length_a                    84.9606018
_cell_length_b                    73.5671005
_cell_length_c                    73.5671005
_cell_angle_alpha                 109.4953995
_cell_angle_beta                  54.7295990
_cell_angle_gamma                 125.2704010
loop_
_atom_site_label
_atom_site_type_symbol
_atom_site_fract_x
_atom_site_fract_y
_atom_site_fract_z
_atom_site_U_iso_or_equiv
_atom_site_adp_type
_atom_site_occupancy
        C1          C  0.5000002  0.5000013  0.5000009    0.00000       Uiso       1.00
        C2          C  0.6357540  0.5308834  0.3238296    0.00000       Uiso       1.00
        C3          C  0.6126805  0.5203737  0.3317916    0.00000       Uiso       1.00
        C4          C  0.6050819  0.5122168  0.3163540    0.00000       Uiso       1.00
        C5          C  0.6203931  0.5147915  0.2932293    0.00000       Uiso       1.00
        C6          C  0.6435089  0.5255442  0.2852673    0.00000       Uiso       1.00
        C7          C  0.6511022  0.5335690  0.3006996    0.00000       Uiso       1.00
        H1          H  0.6420304  0.5369828  0.3353415    0.00000       Uiso       1.00
        H2          H  0.6688659  0.5418161  0.2949367    0.00000       Uiso       1.00
        H3          H  0.6141327  0.5083961  0.2816221    0.00000       Uiso       1.00
        C8          C  0.5759020  0.5555303  0.5923086    0.00000       Uiso       1.00
        C9          C  0.5713001  0.5404187  0.6048725    0.00000       Uiso       1.00
       C10          C  0.5907812  0.5785665  0.5928670    0.00000       Uiso       1.00
       C11          C  0.6011694  0.5863800  0.6056035    0.00000       Uiso       1.00
       C12          C  0.5967684  0.5712262  0.6179665    0.00000       Uiso       1.00
       C13          C  0.5817676  0.5482006  0.6175350    0.00000       Uiso       1.00
        H4          H  0.5596113  0.5226306  0.6050494    0.00000       Uiso       1.00
        H5          H  0.5780140  0.5361999  0.6270515    0.00000       Uiso       1.00
        H6          H  0.6126416  0.6042475  0.6057384    0.00000       Uiso       1.00
       C14          C  0.3873200  0.3317920  0.5203735    0.00000       Uiso       1.00
       C15          C  0.3642464  0.3238300  0.5308831    0.00000       Uiso       1.00
       C16          C  0.3949186  0.3163544  0.5122166    0.00000       Uiso       1.00
       C17          C  0.3796073  0.2932296  0.5147913    0.00000       Uiso       1.00
       C18          C  0.3564916  0.2852677  0.5255440    0.00000       Uiso       1.00
       C19          C  0.3488982  0.3007000  0.5335688    0.00000       Uiso       1.00
        H7          H  0.3579701  0.3353419  0.5369826    0.00000       Uiso       1.00
        H8          H  0.3311346  0.2949371  0.5418159    0.00000       Uiso       1.00
        H9          H  0.3858677  0.2816225  0.5083959    0.00000       Uiso       1.00
       C20          C  0.4240986  0.5923090  0.5555298    0.00000       Uiso       1.00
       C21          C  0.4287005  0.6048729  0.5404183    0.00000       Uiso       1.00
       C22          C  0.4092194  0.5928674  0.5785660    0.00000       Uiso       1.00
       C23          C  0.3988312  0.6056039  0.5863796    0.00000       Uiso       1.00
       C24          C  0.4032322  0.6179669  0.5712258    0.00000       Uiso       1.00
       C25          C  0.4182330  0.6175354  0.5482001    0.00000       Uiso       1.00
       H10          H  0.4403892  0.6050497  0.5226301    0.00000       Uiso       1.00
       H11          H  0.4219866  0.6270519  0.5361994    0.00000       Uiso       1.00
       H12          H  0.3873590  0.6057389  0.6042471    0.00000       Uiso       1.00
        S1          S  0.5966688  0.5982811  0.5772917    0.00000       Uiso       1.00
        O1          O  0.6120459  0.6202536  0.5806028    0.00000       Uiso       1.00
        O2          O  0.5764673  0.5973187  0.5848306    0.00000       Uiso       1.00
        O3          O  0.6068482  0.5923935  0.5523512    0.00000       Uiso       1.00
       H13          H  0.6099676  0.6028378  0.5440792    0.00000       Uiso       1.00
        S2          S  0.4243208  0.3260419  0.4983896    0.00000       Uiso       1.00
        O4          O  0.4276051  0.3073538  0.4917942    0.00000       Uiso       1.00
        O5          O  0.4325587  0.3397477  0.5133107    0.00000       Uiso       1.00
        O6          O  0.4369229  0.3396799  0.4776708    0.00000       Uiso       1.00
       H14          H  0.4525211  0.3448320  0.4703324    0.00000       Uiso       1.00
        S3          S  0.4033317  0.5772921  0.5982807    0.00000       Uiso       1.00
        O7          O  0.3879547  0.5806032  0.6202531    0.00000       Uiso       1.00
        O8          O  0.4235333  0.5848311  0.5973184    0.00000       Uiso       1.00
        O9          O  0.3931524  0.5523516  0.5923931    0.00000       Uiso       1.00
       H15          H  0.3900330  0.5440797  0.6028374    0.00000       Uiso       1.00
        S4          S  0.5756796  0.4983898  0.3260416    0.00000       Uiso       1.00
       O10          O  0.5723953  0.4917944  0.3073534    0.00000       Uiso       1.00
       O11          O  0.5674418  0.5133109  0.3397473    0.00000       Uiso       1.00
       O12          O  0.5630776  0.4776711  0.3396795    0.00000       Uiso       1.00
       H16          H  0.5474793  0.4703326  0.3448316    0.00000       Uiso       1.00
       C26          C  0.5836998  0.5102254  0.3939301    0.00000       Uiso       1.00
       C27          C  0.5645605  0.5114760  0.4028890    0.00000       Uiso       1.00
       C28          C  0.5615582  0.5158481  0.3882013    0.00000       Uiso       1.00
       C29          C  0.5771787  0.5189537  0.3653547    0.00000       Uiso       1.00
       C30          C  0.5962309  0.5174808  0.3563378    0.00000       Uiso       1.00
       C31          C  0.5992346  0.5130598  0.3710198    0.00000       Uiso       1.00
       H17          H  0.5867643  0.5073011  0.4047617    0.00000       Uiso       1.00
       H18          H  0.5744002  0.5227295  0.3547799    0.00000       Uiso       1.00
       C32          C  0.5440269  0.5325528  0.5530862    0.00000       Uiso       1.00
       C33          C  0.5325958  0.5223725  0.5734763    0.00000       Uiso       1.00
       C34          C  0.5660889  0.5502426  0.5457118    0.00000       Uiso       1.00
       C35          C  0.5764207  0.5574688  0.5582267    0.00000       Uiso       1.00
       C36          C  0.5649124  0.5474337  0.5787519    0.00000       Uiso       1.00
       C37          C  0.5428056  0.5297480  0.5861767    0.00000       Uiso       1.00
       H19          H  0.5157753  0.5084764  0.5794652    0.00000       Uiso       1.00
       H20          H  0.5935497  0.5708221  0.5516725    0.00000       Uiso       1.00
       C38          C  0.4354399  0.4028895  0.5114760    0.00000       Uiso       1.00
       C39          C  0.4163005  0.3939305  0.5102252    0.00000       Uiso       1.00
       C40          C  0.4384421  0.3882018  0.5158481    0.00000       Uiso       1.00
       C41          C  0.4228218  0.3653552  0.5189536    0.00000       Uiso       1.00
       C42          C  0.4037695  0.3563382  0.5174806    0.00000       Uiso       1.00
       C43          C  0.4007658  0.3710202  0.5130596    0.00000       Uiso       1.00
       H21          H  0.4132360  0.4047621  0.5073010    0.00000       Uiso       1.00
       H22          H  0.4256002  0.3547803  0.5227293    0.00000       Uiso       1.00
       C44          C  0.4559737  0.5530866  0.5325524    0.00000       Uiso       1.00
       C45          C  0.4674047  0.5734766  0.5223719    0.00000       Uiso       1.00
       C46          C  0.4339118  0.5457125  0.5502425    0.00000       Uiso       1.00
       C47          C  0.4235800  0.5582273  0.5574687    0.00000       Uiso       1.00
       C48          C  0.4350882  0.5787524  0.5474333    0.00000       Uiso       1.00
       C49          C  0.4571948  0.5861769  0.5297474    0.00000       Uiso       1.00
       H23          H  0.4842251  0.5794653  0.5084756    0.00000       Uiso       1.00
       H24          H  0.4064510  0.5516731  0.5708221    0.00000       Uiso       1.00
        S5          S  0.5370437  0.5171474  0.3985602    0.00000       Uiso       1.00
       O13          O  0.5378565  0.5217702  0.3805451    0.00000       Uiso       1.00
       O14          O  0.5363284  0.5344077  0.4148817    0.00000       Uiso       1.00
       O15          O  0.5160807  0.4946807  0.4092264    0.00000       Uiso       1.00
       H25          H  0.5030699  0.4953594  0.4147332    0.00000       Uiso       1.00
        S6          S  0.6230654  0.5104930  0.3606143    0.00000       Uiso       1.00
       O16          O  0.6366555  0.5139540  0.3370608    0.00000       Uiso       1.00
       O17          O  0.6156069  0.4887144  0.3654796    0.00000       Uiso       1.00
       O18          O  0.6367154  0.5280289  0.3719246    0.00000       Uiso       1.00
       H26          H  0.6493540  0.5266724  0.3664208    0.00000       Uiso       1.00
        S7          S  0.4184568  0.5198987  0.5643984    0.00000       Uiso       1.00
       O19          O  0.3966320  0.5160890  0.5816006    0.00000       Uiso       1.00
       O20          O  0.4297585  0.5212973  0.5739599    0.00000       Uiso       1.00
       O21          O  0.4166755  0.5005394  0.5475931    0.00000       Uiso       1.00
       H27          H  0.4084877  0.4868423  0.5550871    0.00000       Uiso       1.00
        S8          S  0.4731869  0.6125745  0.5163220    0.00000       Uiso       1.00
       O22          O  0.4597625  0.6227036  0.5262855    0.00000       Uiso       1.00
       O23          O  0.4800789  0.6089639  0.4931449    0.00000       Uiso       1.00
       O24          O  0.4938491  0.6279970  0.5191125    0.00000       Uiso       1.00
       H28          H  0.5023453  0.6419992  0.5119879    0.00000       Uiso       1.00
        S9          S  0.4629567  0.3985607  0.5171475    0.00000       Uiso       1.00
       O25          O  0.4621439  0.3805457  0.5217702    0.00000       Uiso       1.00
       O26          O  0.4636719  0.4148822  0.5344077    0.00000       Uiso       1.00
       O27          O  0.4839197  0.4092270  0.4946808    0.00000       Uiso       1.00
       H29          H  0.4969305  0.4147338  0.4953595    0.00000       Uiso       1.00
       S10          S  0.3769350  0.3606147  0.5104927    0.00000       Uiso       1.00
       O28          O  0.3633450  0.3370611  0.5139537    0.00000       Uiso       1.00
       O29          O  0.3843936  0.3654800  0.4887142    0.00000       Uiso       1.00
       O30          O  0.3632849  0.3719249  0.5280287    0.00000       Uiso       1.00
       H30          H  0.3506463  0.3664210  0.5266721    0.00000       Uiso       1.00
       S11          S  0.5268135  0.5163229  0.6125743    0.00000       Uiso       1.00
       O31          O  0.5402380  0.5262864  0.6227035    0.00000       Uiso       1.00
       O32          O  0.5199211  0.4931458  0.6089641    0.00000       Uiso       1.00
       O33          O  0.5061514  0.5191138  0.6279967    0.00000       Uiso       1.00
       H31          H  0.4976552  0.5119894  0.6419991    0.00000       Uiso       1.00
       S12          S  0.5815440  0.5643981  0.5198978    0.00000       Uiso       1.00
       O34          O  0.6033689  0.5816001  0.5160878    0.00000       Uiso       1.00
       O35          O  0.5702426  0.5739598  0.5212960    0.00000       Uiso       1.00
       O36          O  0.5833250  0.5475925  0.5005388    0.00000       Uiso       1.00
       H32          H  0.5915129  0.5550863  0.4868415    0.00000       Uiso       1.00
       C50          C  0.5278904  0.4909151  0.4629856    0.00000       Uiso       1.00
       C51          C  0.5168056  0.5033752  0.4743721    0.00000       Uiso       1.00
       C52          C  0.5209401  0.5175980  0.4612750    0.00000       Uiso       1.00
       C53          C  0.5364324  0.5203343  0.4384077    0.00000       Uiso       1.00
       C54          C  0.5479165  0.5084196  0.4274149    0.00000       Uiso       1.00
       C55          C  0.5431871  0.4934449  0.4400451    0.00000       Uiso       1.00
       H33          H  0.5247648  0.4792547  0.4721048    0.00000       Uiso       1.00
       H34          H  0.5122793  0.5267351  0.4683165    0.00000       Uiso       1.00
       H35          H  0.5395532  0.5320635  0.4293798    0.00000       Uiso       1.00
       C56          C  0.5121977  0.5088246  0.5134323    0.00000       Uiso       1.00
       C57          C  0.5000395  0.5091265  0.5369771    0.00000       Uiso       1.00
       C58          C  0.5353831  0.5177869  0.5033438    0.00000       Uiso       1.00
       C59          C  0.5454943  0.5251617  0.5160999    0.00000       Uiso       1.00
       C60          C  0.5330886  0.5246710  0.5394986    0.00000       Uiso       1.00
       C61          C  0.5102131  0.5167703  0.5497440    0.00000       Uiso       1.00
       H36          H  0.4823854  0.5031331  0.5455120    0.00000       Uiso       1.00
       H37          H  0.5461394  0.5194059  0.4855459    0.00000       Uiso       1.00
       H38          H  0.5631307  0.5310687  0.5074914    0.00000       Uiso       1.00
       C62          C  0.4831947  0.4743724  0.5033750    0.00000       Uiso       1.00
       C63          C  0.4721099  0.4629860  0.4909151    0.00000       Uiso       1.00
       C64          C  0.4790603  0.4612755  0.5175980    0.00000       Uiso       1.00
       C65          C  0.4635679  0.4384082  0.5203343    0.00000       Uiso       1.00
       C66          C  0.4520839  0.4274153  0.5084196    0.00000       Uiso       1.00
       C67          C  0.4568131  0.4400455  0.4934449    0.00000       Uiso       1.00
       H39          H  0.4752354  0.4721052  0.4792547    0.00000       Uiso       1.00
       H40          H  0.4877211  0.4683171  0.5267351    0.00000       Uiso       1.00
       H41          H  0.4604471  0.4293803  0.5320635    0.00000       Uiso       1.00
       C68          C  0.4878029  0.5134327  0.5088242    0.00000       Uiso       1.00
       C69          C  0.4999613  0.5369775  0.5091255    0.00000       Uiso       1.00
       C70          C  0.4646173  0.5033442  0.5177873    0.00000       Uiso       1.00
       C71          C  0.4545061  0.5161003  0.5251622    0.00000       Uiso       1.00
       C72          C  0.4669121  0.5394991  0.5246706    0.00000       Uiso       1.00
       C73          C  0.4897877  0.5497444  0.5167692    0.00000       Uiso       1.00
       H42          H  0.5176155  0.5455124  0.5031315    0.00000       Uiso       1.00
       H43          H  0.4538609  0.4855464  0.5194070    0.00000       Uiso       1.00
       H44          H  0.4368695  0.5074918  0.5310699    0.00000       Uiso       1.00
       S13          S  0.4933815  0.5167560  0.5797699    0.00000       Uiso       1.00
       O37          O  0.5069057  0.5251206  0.5894668    0.00000       Uiso       1.00
       O38          O  0.4757493  0.4945269  0.5873740    0.00000       Uiso       1.00
       O39          O  0.4834627  0.5316603  0.5866691    0.00000       Uiso       1.00
       H45          H  0.4745252  0.5316542  0.6025931    0.00000       Uiso       1.00
       S14          S  0.4436042  0.4268513  0.4766279    0.00000       Uiso       1.00
       O40          O  0.4287477  0.4036302  0.4817876    0.00000       Uiso       1.00
       O41          O  0.4602488  0.4296551  0.4535783    0.00000       Uiso       1.00
       O42          O  0.4304650  0.4376503  0.4815767    0.00000       Uiso       1.00
       H46          H  0.4234610  0.4306669  0.4726562    0.00000       Uiso       1.00
       S15          S  0.5066196  0.5797704  0.5167539    0.00000       Uiso       1.00
       O43          O  0.4930954  0.5894673  0.5251185    0.00000       Uiso       1.00
       O44          O  0.5242512  0.5873737  0.4945244    0.00000       Uiso       1.00
       O45          O  0.5165392  0.5866704  0.5316575    0.00000       Uiso       1.00
       H47          H  0.5254769  0.6025943  0.5316509    0.00000       Uiso       1.00
       S16          S  0.5563959  0.4766278  0.4268509    0.00000       Uiso       1.00
       O46          O  0.5712524  0.4817874  0.4036298    0.00000       Uiso       1.00
       O47          O  0.5397513  0.4535782  0.4296547    0.00000       Uiso       1.00
       O48          O  0.5695351  0.4815764  0.4376498    0.00000       Uiso       1.00
       H48          H  0.5765390  0.4726559  0.4306664    0.00000       Uiso       1.00
       C74          C  0.6251126  0.3749457  0.8748327    0.00000       Uiso       1.00
       C75          C  0.7300160  0.3036928  0.7389681    0.00000       Uiso       1.00
       C76          C  0.7174542  0.2990853  0.7620432    0.00000       Uiso       1.00
       C77          C  0.7180192  0.2842063  0.7696282    0.00000       Uiso       1.00
       C78          C  0.7307604  0.2738238  0.7543020    0.00000       Uiso       1.00
       C79          C  0.7431215  0.2782304  0.7311847    0.00000       Uiso       1.00
       C80          C  0.7426832  0.2932309  0.7236050    0.00000       Uiso       1.00
       H49          H  0.7301877  0.3153817  0.7327022    0.00000       Uiso       1.00
       H50          H  0.7521981  0.2969888  0.7058404    0.00000       Uiso       1.00
       H51          H  0.7309005  0.2623516  0.7605520    0.00000       Uiso       1.00
       C81          C  0.6454347  0.4876351  0.7990229    0.00000       Uiso       1.00
       C82          C  0.6559340  0.5107133  0.8036407    0.00000       Uiso       1.00
       C83          C  0.6372811  0.4800329  0.7841405    0.00000       Uiso       1.00
       C84          C  0.6398489  0.4953452  0.7737648    0.00000       Uiso       1.00
       C85          C  0.6505914  0.5184658  0.7781818    0.00000       Uiso       1.00
       C86          C  0.6586128  0.5260627  0.7931858    0.00000       Uiso       1.00
       H52          H  0.6620306  0.5169924  0.8153324    0.00000       Uiso       1.00
       H53          H  0.6668519  0.5438300  0.7969517    0.00000       Uiso       1.00
       H54          H  0.6334564  0.4890820  0.7622899    0.00000       Uiso       1.00
       C87          C  0.6806077  0.4508722  0.9875562    0.00000       Uiso       1.00
       C88          C  0.6654972  0.4462628  0.0106331    0.00000       Uiso       1.00
       C89          C  0.7036372  0.4657618  0.9799606    0.00000       Uiso       1.00
       C90          C  0.7114461  0.4761535  0.9952776    0.00000       Uiso       1.00
       C91          C  0.6962933  0.4717448  0.0183970    0.00000       Uiso       1.00
       C92          C  0.6732744  0.4567338  0.0259872    0.00000       Uiso       1.00
       H55          H  0.6477142  0.4345660  0.0169069    0.00000       Uiso       1.00
       H56          H  0.6612753  0.4529747  0.0437528    0.00000       Uiso       1.00
       H57          H  0.7293085  0.4876337  0.9890195    0.00000       Uiso       1.00
       C93          C  0.4569538  0.2621902  0.9507087    0.00000       Uiso       1.00
       C94          C  0.4490020  0.2391131  0.9460897    0.00000       Uiso       1.00
       C95          C  0.4415127  0.2697819  0.9656016    0.00000       Uiso       1.00
       C96          C  0.4183948  0.2544603  0.9759865    0.00000       Uiso       1.00
       C97          C  0.4104433  0.2313410  0.9715683    0.00000       Uiso       1.00
       C98          C  0.4258789  0.2237546  0.9565538    0.00000       Uiso       1.00
       H58          H  0.4605168  0.2328419  0.9343902    0.00000       Uiso       1.00
       H59          H  0.4201239  0.2059884  0.9527869    0.00000       Uiso       1.00
       H60          H  0.4067850  0.2607155  0.9874695    0.00000       Uiso       1.00
       S17          S  0.6234673  0.4506244  0.7782327    0.00000       Uiso       1.00
       O49          O  0.6168734  0.4473372  0.7628556    0.00000       Uiso       1.00
       O50          O  0.6042333  0.4389156  0.7984325    0.00000       Uiso       1.00
       O51          O  0.6395382  0.4417580  0.7680382    0.00000       Uiso       1.00
       H61          H  0.6322203  0.4261579  0.7649081    0.00000       Uiso       1.00
       S18          S  0.7233492  0.4716582  0.9505548    0.00000       Uiso       1.00
       O52          O  0.7453147  0.4870452  0.9472745    0.00000       Uiso       1.00
       O53          O  0.7178771  0.4811091  0.9423279    0.00000       Uiso       1.00
       O54          O  0.7223231  0.4499032  0.9379337    0.00000       Uiso       1.00
       H62          H  0.7327678  0.4530154  0.9223336    0.00000       Uiso       1.00
       S19          S  0.4511872  0.2991885  0.9715113    0.00000       Uiso       1.00
       O55          O  0.4324976  0.3024644  0.9868997    0.00000       Uiso       1.00
       O56          O  0.4638446  0.3108944  0.9513145    0.00000       Uiso       1.00
       O57          O  0.4659444  0.3080687  0.9816920    0.00000       Uiso       1.00
       H63          H  0.4710900  0.3236678  0.9848230    0.00000       Uiso       1.00
       S20          S  0.7024466  0.2783117  0.7990322    0.00000       Uiso       1.00
       O58          O  0.7057647  0.2629361  0.8023012    0.00000       Uiso       1.00
       O59          O  0.6792919  0.2688481  0.8072719    0.00000       Uiso       1.00
       O60          O  0.7105535  0.3000699  0.8116501    0.00000       Uiso       1.00
       H64          H  0.7022952  0.2969586  0.8272492    0.00000       Uiso       1.00
       C99          C  0.6986025  0.3423831  0.7910711    0.00000       Uiso       1.00
      C100          C  0.6782176  0.3309429  0.8102094    0.00000       Uiso       1.00
      C101          C  0.6708533  0.3088776  0.8131951    0.00000       Uiso       1.00
      C102          C  0.6833727  0.2985514  0.7975598    0.00000       Uiso       1.00
      C103          C  0.7038927  0.3100688  0.7785087    0.00000       Uiso       1.00
      C104          C  0.7113075  0.3321789  0.7755215    0.00000       Uiso       1.00
       H65          H  0.7045838  0.3592062  0.7880189    0.00000       Uiso       1.00
       H66          H  0.6768261  0.2814195  0.8003258    0.00000       Uiso       1.00
      C105          C  0.6365587  0.4395112  0.8308588    0.00000       Uiso       1.00
      C106          C  0.6352993  0.4586499  0.8423077    0.00000       Uiso       1.00
      C107          C  0.6409322  0.4365110  0.8087922    0.00000       Uiso       1.00
      C108          C  0.6440307  0.4521328  0.7984730    0.00000       Uiso       1.00
      C109          C  0.6425491  0.4711843  0.8099990    0.00000       Uiso       1.00
      C110          C  0.6381267  0.4741859  0.8321104    0.00000       Uiso       1.00
       H67          H  0.6323735  0.4617131  0.8591322    0.00000       Uiso       1.00
       H68          H  0.6478078  0.4493561  0.7813398    0.00000       Uiso       1.00
      C111          C  0.6576444  0.4189869  0.9394180    0.00000       Uiso       1.00
      C112          C  0.6474692  0.4075512  0.9585516    0.00000       Uiso       1.00
      C113          C  0.6753244  0.4410568  0.9364276    0.00000       Uiso       1.00
      C114          C  0.6825461  0.4513918  0.9520540    0.00000       Uiso       1.00
      C115          C  0.6725160  0.4398791  0.9711004    0.00000       Uiso       1.00
      C116          C  0.6548402  0.4177644  0.9740922    0.00000       Uiso       1.00
       H69          H  0.6335805  0.3907246  0.9616073    0.00000       Uiso       1.00
       H70          H  0.6958917  0.4685268  0.9492849    0.00000       Uiso       1.00
      C117          C  0.5280296  0.3103420  0.9188449    0.00000       Uiso       1.00
      C118          C  0.5190794  0.2911986  0.9074007    0.00000       Uiso       1.00
      C119          C  0.5133406  0.3133378  0.9409160    0.00000       Uiso       1.00
      C120          C  0.4905009  0.2977071  0.9512441    0.00000       Uiso       1.00
      C121          C  0.4814926  0.2786508  0.9397229    0.00000       Uiso       1.00
      C122          C  0.4961759  0.2756535  0.9176070    0.00000       Uiso       1.00
       H71          H  0.5299123  0.2881387  0.8905728    0.00000       Uiso       1.00
       H72          H  0.4799249  0.3004809  0.9683803    0.00000       Uiso       1.00
       S21          S  0.6450463  0.2934110  0.8377073    0.00000       Uiso       1.00
       O61          O  0.6412462  0.2715845  0.8368766    0.00000       Uiso       1.00
       O62          O  0.6270716  0.2917491  0.8384292    0.00000       Uiso       1.00
       O63          O  0.6465445  0.3055817  0.8586806    0.00000       Uiso       1.00
       H73          H  0.6328588  0.2973929  0.8716902    0.00000       Uiso       1.00
       S22          S  0.7376979  0.3481828  0.7516932    0.00000       Uiso       1.00
       O64          O  0.7478330  0.3347628  0.7380865    0.00000       Uiso       1.00
       O65          O  0.7520093  0.3673744  0.7591625    0.00000       Uiso       1.00
       O66          O  0.7338086  0.3556054  0.7380516    0.00000       Uiso       1.00
       H74          H  0.7478000  0.3641029  0.7254143    0.00000       Uiso       1.00
       S23          S  0.5236884  0.3378571  0.9563884    0.00000       Uiso       1.00
       O67          O  0.5056738  0.3370363  0.9782205    0.00000       Uiso       1.00
       O68          O  0.5335829  0.3573261  0.9450997    0.00000       Uiso       1.00
       O69          O  0.5412660  0.3386377  0.9581626    0.00000       Uiso       1.00
       H75          H  0.5467694  0.3516435  0.9663596    0.00000       Uiso       1.00
       S24          S  0.4857812  0.2518180  0.9015982    0.00000       Uiso       1.00
       O70          O  0.4622337  0.2382174  0.9150211    0.00000       Uiso       1.00
       O71          O  0.4962894  0.2391482  0.8946901    0.00000       Uiso       1.00
       O72          O  0.4910173  0.2598506  0.8809409    0.00000       Uiso       1.00
       H76          H  0.4855168  0.2472175  0.8724358    0.00000       Uiso       1.00
       S25          S  0.6894731  0.4565181  0.9119206    0.00000       Uiso       1.00
       O73          O  0.7066655  0.4783507  0.9127452    0.00000       Uiso       1.00
       O74          O  0.6738660  0.4581650  0.9112138    0.00000       Uiso       1.00
       O75          O  0.6997752  0.4443527  0.8909420    0.00000       Uiso       1.00
       H77          H  0.7072755  0.4525387  0.8779352    0.00000       Uiso       1.00
       S26          S  0.6414221  0.4017664  0.9979147    0.00000       Uiso       1.00
       O76          O  0.6513786  0.4151945  0.0115130    0.00000       Uiso       1.00
       O77          O  0.6440239  0.3825822  0.9904377    0.00000       Uiso       1.00
       O78          O  0.6164641  0.3943301  0.0115700    0.00000       Uiso       1.00
       H78          H  0.6093332  0.3858356  0.0242042    0.00000       Uiso       1.00
       S27          S  0.6355490  0.4980155  0.8481251    0.00000       Uiso       1.00
       O79          O  0.6390039  0.5116071  0.8347112    0.00000       Uiso       1.00
       O80          O  0.6518281  0.5106973  0.8550215    0.00000       Uiso       1.00
       O81          O  0.6120997  0.4899744  0.8687904    0.00000       Uiso       1.00
       H79          H  0.6107222  0.5026044  0.8772986    0.00000       Uiso       1.00
       S28          S  0.6422428  0.4119971  0.7933145    0.00000       Uiso       1.00
       O82          O  0.6468653  0.4128121  0.7714882    0.00000       Uiso       1.00
       O83          O  0.6213885  0.3925230  0.8046077    0.00000       Uiso       1.00
       O84          O  0.6608298  0.4112330  0.7915245    0.00000       Uiso       1.00
       H80          H  0.6615296  0.3982301  0.7833247    0.00000       Uiso       1.00
      C123          C  0.6620889  0.3749232  0.8469260    0.00000       Uiso       1.00
      C124          C  0.6385495  0.3627543  0.8580104    0.00000       Uiso       1.00
      C125          C  0.6284715  0.3395644  0.8538597    0.00000       Uiso       1.00
      C126          C  0.6412321  0.3294589  0.8383526    0.00000       Uiso       1.00
      C127          C  0.6646252  0.3418751  0.8268692    0.00000       Uiso       1.00
      C128          C  0.6748603  0.3647553  0.8316144    0.00000       Uiso       1.00
       H81          H  0.6706159  0.3925811  0.8500636    0.00000       Uiso       1.00
       H82          H  0.6106784  0.3288000  0.8625188    0.00000       Uiso       1.00
       H83          H  0.6326314  0.3118186  0.8352199    0.00000       Uiso       1.00
      C129          C  0.6284791  0.3917527  0.8626488    0.00000       Uiso       1.00
      C130          C  0.6160139  0.4028318  0.8748227    0.00000       Uiso       1.00
      C131          C  0.6427004  0.3958938  0.8394608    0.00000       Uiso       1.00
      C132          C  0.6454298  0.4113874  0.8293623    0.00000       Uiso       1.00
      C133          C  0.6335097  0.4228658  0.8417836    0.00000       Uiso       1.00
      C134          C  0.6185370  0.4181296  0.8646615    0.00000       Uiso       1.00
       H84          H  0.6043548  0.3997009  0.8924791    0.00000       Uiso       1.00
       H85          H  0.6518416  0.3872372  0.8286926    0.00000       Uiso       1.00
       H86          H  0.6571578  0.4145135  0.8117234    0.00000       Uiso       1.00
      C135          C  0.6339304  0.3871471  0.8916452    0.00000       Uiso       1.00
      C136          C  0.6342375  0.3749889  0.9027191    0.00000       Uiso       1.00
      C137          C  0.6428826  0.4103365  0.8957964    0.00000       Uiso       1.00
      C138          C  0.6502529  0.4204511  0.9112946    0.00000       Uiso       1.00
      C139          C  0.6497675  0.4080451  0.9227677    0.00000       Uiso       1.00
      C140          C  0.6418766  0.3851659  0.9180216    0.00000       Uiso       1.00
       H87          H  0.6282517  0.3573321  0.8995804    0.00000       Uiso       1.00
       H88          H  0.6444970  0.4210936  0.8871446    0.00000       Uiso       1.00
       H89          H  0.6561522  0.4380902  0.9144285    0.00000       Uiso       1.00
      C141          C  0.5994914  0.3581288  0.8870265    0.00000       Uiso       1.00
      C142          C  0.5881099  0.3470386  0.8748633    0.00000       Uiso       1.00
      C143          C  0.5863961  0.3539890  0.9102142    0.00000       Uiso       1.00
      C144          C  0.5635357  0.3384864  0.9203218    0.00000       Uiso       1.00
      C145          C  0.5525481  0.3269970  0.9079105    0.00000       Uiso       1.00
      C146          C  0.5651762  0.3317316  0.8850334    0.00000       Uiso       1.00
       H90          H  0.5972278  0.3501680  0.8572078    0.00000       Uiso       1.00
       H91          H  0.5934337  0.3626533  0.9209753    0.00000       Uiso       1.00
       H92          H  0.5545091  0.3353620  0.9379596    0.00000       Uiso       1.00
       S29          S  0.6017137  0.4313307  0.8815125    0.00000       Uiso       1.00
       O85          O  0.6068668  0.4461896  0.8679993    0.00000       Uiso       1.00
       O86          O  0.6063054  0.4435339  0.8991535    0.00000       Uiso       1.00
       O87          O  0.5768989  0.4133960  0.8914263    0.00000       Uiso       1.00
       H93          H  0.5679642  0.4203843  0.9003741    0.00000       Uiso       1.00
       S30          S  0.6418694  0.3683342  0.9312154    0.00000       Uiso       1.00
       O88          O  0.6502280  0.3818621  0.9460803    0.00000       Uiso       1.00
       O89          O  0.6557144  0.3591315  0.9145564    0.00000       Uiso       1.00
       O90          O  0.6179398  0.3493340  0.9443483    0.00000       Uiso       1.00
       H94          H  0.6179233  0.3403930  0.9513443    0.00000       Uiso       1.00
       S31          S  0.5519881  0.3185163  0.8681956    0.00000       Uiso       1.00
       O91          O  0.5287737  0.3036494  0.8817168    0.00000       Uiso       1.00
       O92          O  0.5620217  0.3063194  0.8505486    0.00000       Uiso       1.00
       O93          O  0.5549995  0.3364407  0.8582907    0.00000       Uiso       1.00
       H95          H  0.5480165  0.3294449  0.8493499    0.00000       Uiso       1.00
       S32          S  0.7048787  0.3816004  0.8184073    0.00000       Uiso       1.00
       O94          O  0.7145816  0.3680805  0.8035344    0.00000       Uiso       1.00
       O95          O  0.7112795  0.3908120  0.8350574    0.00000       Uiso       1.00
       O96          O  0.7130608  0.4005936  0.8052815    0.00000       Uiso       1.00
       H96          H  0.7289811  0.4095417  0.7982785    0.00000       Uiso       1.00
      C147          C  0.8750010  0.0000578  0.7501684    0.00000       Uiso       1.00
      C148          C  0.0511390  0.0404282  0.6452224    0.00000       Uiso       1.00
      C149          C  0.0431779  0.0555454  0.6578012    0.00000       Uiso       1.00
      C150          C  0.0586116  0.0785813  0.6572499    0.00000       Uiso       1.00
      C151          C  0.0817318  0.0863892  0.6445054    0.00000       Uiso       1.00
      C152          C  0.0896930  0.0712298  0.6321272    0.00000       Uiso       1.00
      C153          C  0.0742646  0.0482044  0.6325517    0.00000       Uiso       1.00
       H97          H  0.0396297  0.0226399  0.6450399    0.00000       Uiso       1.00
       H98          H  0.0800269  0.0361994  0.6230236    0.00000       Uiso       1.00
       H99          H  0.0933360  0.1042566  0.6443761    0.00000       Uiso       1.00
      C154          C  0.7827083  0.8318387  0.7297371    0.00000       Uiso       1.00
      C155          C  0.7701330  0.8238719  0.7192363    0.00000       Uiso       1.00
      C156          C  0.7821639  0.8164047  0.7378770    0.00000       Uiso       1.00
      C157          C  0.7694297  0.7932788  0.7352942    0.00000       Uiso       1.00
      C158          C  0.7570551  0.7853121  0.7245502    0.00000       Uiso       1.00
      C159          C  0.7574727  0.8007407  0.7165424    0.00000       Uiso       1.00
      H100          H  0.7699453  0.8353811  0.7131500    0.00000       Uiso       1.00
      H101          H  0.7479471  0.7949741  0.7083024    0.00000       Uiso       1.00
      H102          H  0.7693056  0.7816745  0.7416764    0.00000       Uiso       1.00
      C160          C  0.8545281  0.0923407  0.6947652    0.00000       Uiso       1.00
      C161          C  0.8440216  0.1049114  0.7098907    0.00000       Uiso       1.00
      C162          C  0.8626677  0.0928887  0.6717326    0.00000       Uiso       1.00
      C163          C  0.8600793  0.1056217  0.6639362    0.00000       Uiso       1.00
      C164          C  0.8493297  0.1179916  0.6791040    0.00000       Uiso       1.00
      C165          C  0.8413221  0.1175704  0.7021260    0.00000       Uiso       1.00
      H103          H  0.8379353  0.1050962  0.7276766    0.00000       Uiso       1.00
      H104          H  0.8330778  0.1270923  0.7141373    0.00000       Uiso       1.00
      H105          H  0.8664613  0.1057487  0.6460711    0.00000       Uiso       1.00
      C166          C  0.8195886  0.0205059  0.9183704    0.00000       Uiso       1.00
      C167          C  0.8347093  0.0310191  0.9263247    0.00000       Uiso       1.00
      C168          C  0.7965596  0.0123559  0.9338145    0.00000       Uiso       1.00
      C169          C  0.7887621  0.0149410  0.9569381    0.00000       Uiso       1.00
      C170          C  0.8039250  0.0256972  0.9648926    0.00000       Uiso       1.00
      C171          C  0.8269436  0.0337152  0.9494538    0.00000       Uiso       1.00
      H106          H  0.8524925  0.0371134  0.9148075    0.00000       Uiso       1.00
      H107          H  0.8389511  0.0419648  0.9552107    0.00000       Uiso       1.00
      H108          H  0.7708998  0.0085508  0.9685504    0.00000       Uiso       1.00
       S33          S  0.7977542  0.8260984  0.7516925    0.00000       Uiso       1.00
       O97          O  0.7944559  0.8074133  0.7582712    0.00000       Uiso       1.00
       O98          O  0.7902234  0.8387697  0.7709413    0.00000       Uiso       1.00
       O99          O  0.8226849  0.8408525  0.7356237    0.00000       Uiso       1.00
      H109          H  0.8309648  0.8460083  0.7429425    0.00000       Uiso       1.00
       S34          S  0.8764903  0.0773046  0.6520004    0.00000       Uiso       1.00
      O100          O  0.8830674  0.0806058  0.6300349    0.00000       Uiso       1.00
      O101          O  0.8615777  0.0541481  0.6574585    0.00000       Uiso       1.00
      O102          O  0.8972157  0.0854217  0.6530245    0.00000       Uiso       1.00
      H110          H  0.9045517  0.0771573  0.6425692    0.00000       Uiso       1.00
       S35          S  0.7768330  0.9985238  0.9241365    0.00000       Uiso       1.00
      O103          O  0.7548704  0.9919369  0.9428300    0.00000       Uiso       1.00
      O104          O  0.7777931  0.9792789  0.9114614    0.00000       Uiso       1.00
      O105          O  0.7827035  0.0145849  0.9093910    0.00000       Uiso       1.00
      H111          H  0.7722532  0.0072577  0.9042435    0.00000       Uiso       1.00
       S36          S  0.0489248  0.0983030  0.6728446    0.00000       Uiso       1.00
      O106          O  0.0676086  0.1202739  0.6695379    0.00000       Uiso       1.00
      O107          O  0.0352361  0.0928455  0.6960005    0.00000       Uiso       1.00
      O108          O  0.0352739  0.0972635  0.6647428    0.00000       Uiso       1.00
      H112          H  0.0301222  0.1077133  0.6730128    0.00000       Uiso       1.00
      C172          C  0.9810433  0.0223961  0.6766511    0.00000       Uiso       1.00
      C173          C  0.9720941  0.0325857  0.6970491    0.00000       Uiso       1.00
      C174          C  0.9867872  0.0502789  0.7044227    0.00000       Uiso       1.00
      C175          C  0.0096294  0.0574994  0.6918996    0.00000       Uiso       1.00
      C176          C  0.0186365  0.0474549  0.6713665    0.00000       Uiso       1.00
      C177          C  0.0039492  0.0297658  0.6639425    0.00000       Uiso       1.00
      H113          H  0.9702078  0.0084972  0.6706622    0.00000       Uiso       1.00
      H114          H  0.0202089  0.0708556  0.6984533    0.00000       Uiso       1.00
      C178          C  0.8219244  0.9029401  0.7386591    0.00000       Uiso       1.00
      C179          C  0.8015303  0.8939817  0.7399197    0.00000       Uiso       1.00
      C180          C  0.8293048  0.8882505  0.7342692    0.00000       Uiso       1.00
      C181          C  0.8167917  0.8654024  0.7311558    0.00000       Uiso       1.00
      C182          C  0.7962626  0.8563861  0.7326385    0.00000       Uiso       1.00
      C183          C  0.7888319  0.8710701  0.7370775    0.00000       Uiso       1.00
      H115          H  0.7955366  0.9048146  0.7428578    0.00000       Uiso       1.00
      H116          H  0.8233502  0.8548259  0.7273663    0.00000       Uiso       1.00
      C184          C  0.8634678  0.0531285  0.7176894    0.00000       Uiso       1.00
      C185          C  0.8647190  0.0735232  0.7278824    0.00000       Uiso       1.00
      C186          C  0.8590811  0.0457463  0.7000048    0.00000       Uiso       1.00
      C187          C  0.8559622  0.0582579  0.6927957    0.00000       Uiso       1.00
      C188          C  0.8574356  0.0787877  0.7028435    0.00000       Uiso       1.00
      C189          C  0.8618711  0.0862203  0.7205240    0.00000       Uiso       1.00
      H117          H  0.8676544  0.0795182  0.7417750    0.00000       Uiso       1.00
      H118          H  0.8521757  0.0516978  0.6794459    0.00000       Uiso       1.00
      C190          C  0.8425166  0.0115763  0.8472763    0.00000       Uiso       1.00
      C191          C  0.8527104  0.0103299  0.8562210    0.00000       Uiso       1.00
      C192          C  0.8248298  0.0159548  0.8619772    0.00000       Uiso       1.00
      C193          C  0.8176195  0.0190707  0.8848228    0.00000       Uiso       1.00
      C194          C  0.8276681  0.0176020  0.8938254    0.00000       Uiso       1.00
      C195          C  0.8453508  0.0131746  0.8791301    0.00000       Uiso       1.00
      H119          H  0.8666044  0.0074009  0.8453791    0.00000       Uiso       1.00
      H120          H  0.8042679  0.0228510  0.8954082    0.00000       Uiso       1.00
       S37          S  0.9764404  0.0644462  0.7302470    0.00000       Uiso       1.00
      O109          O  0.9944593  0.0816500  0.7340544    0.00000       Uiso       1.00
      O110          O  0.9601347  0.0488480  0.7482151    0.00000       Uiso       1.00
      O111          O  0.9657634  0.0747423  0.7287627    0.00000       Uiso       1.00
      H121          H  0.9602631  0.0822524  0.7424577    0.00000       Uiso       1.00
       S38          S  0.0143417  0.0163287  0.6375354    0.00000       Uiso       1.00
      O112          O  0.0378922  0.0262876  0.6273987    0.00000       Uiso       1.00
      O113          O  0.0094602  0.0189156  0.6232285    0.00000       Uiso       1.00
      O114          O  0.0030403  0.9913694  0.6414074    0.00000       Uiso       1.00
      H122          H  0.0085373  0.9842284  0.6274071    0.00000       Uiso       1.00
       S39          S  0.8106577  0.0172493  0.8516369    0.00000       Uiso       1.00
      O115          O  0.7934619  0.0218799  0.8696634    0.00000       Uiso       1.00
      O116          O  0.8010918  0.9963809  0.8417281    0.00000       Uiso       1.00
      O117          O  0.8274465  0.0358280  0.8340684    0.00000       Uiso       1.00
      H123          H  0.8199438  0.0365193  0.8285689    0.00000       Uiso       1.00
       S40          S  0.8587927  0.0106126  0.8895165    0.00000       Uiso       1.00
      O118          O  0.8488443  0.0140841  0.9130716    0.00000       Uiso       1.00
      O119          O  0.8819634  0.0268928  0.8790125    0.00000       Uiso       1.00
      O120          O  0.8560061  0.9871567  0.8842607    0.00000       Uiso       1.00
      H124          H  0.8631394  0.9857875  0.8897567    0.00000       Uiso       1.00
       S41          S  0.8577800  0.0199260  0.6858335    0.00000       Uiso       1.00
      O121          O  0.8531415  0.0161084  0.6686398    0.00000       Uiso       1.00
      O122          O  0.8405342  0.0019576  0.7014322    0.00000       Uiso       1.00
      O123          O  0.8802469  0.0214250  0.6755227    0.00000       Uiso       1.00
      H125          H  0.8795673  0.0077322  0.6680104    0.00000       Uiso       1.00
       S42          S  0.8644393  0.1126239  0.7339646    0.00000       Uiso       1.00
      O124          O  0.8609633  0.1227486  0.7240177    0.00000       Uiso       1.00
      O125          O  0.8862189  0.1269427  0.7313658    0.00000       Uiso       1.00
      O126          O  0.8469196  0.1087492  0.7589259    0.00000       Uiso       1.00
      H126          H  0.8482769  0.1227476  0.7660687    0.00000       Uiso       1.00
       S43          S  0.7624294  0.8606658  0.7396576    0.00000       Uiso       1.00
      O127          O  0.7523032  0.8371106  0.7361861    0.00000       Uiso       1.00
      O128          O  0.7660219  0.8711610  0.7233863    0.00000       Uiso       1.00
      O129          O  0.7470188  0.8659160  0.7631185    0.00000       Uiso       1.00
      H127          H  0.7330138  0.8604104  0.7644973    0.00000       Uiso       1.00
       S44          S  0.8551245  0.8986087  0.7329562    0.00000       Uiso       1.00
      O130          O  0.8589401  0.8805917  0.7283159    0.00000       Uiso       1.00
      O131          O  0.8537399  0.9085212  0.7538201    0.00000       Uiso       1.00
      O132          O  0.8744677  0.9161785  0.7143764    0.00000       Uiso       1.00
      H128          H  0.8881680  0.9216875  0.7136753    0.00000       Uiso       1.00
      C196          C  0.9119956  0.0091664  0.7131838    0.00000       Uiso       1.00
      C197          C  0.9006252  0.0088752  0.7367280    0.00000       Uiso       1.00
      C198          C  0.9137331  0.0178423  0.7468082    0.00000       Uiso       1.00
      C199          C  0.9365960  0.0252115  0.7340440    0.00000       Uiso       1.00
      C200          C  0.9475730  0.0247099  0.7106454    0.00000       Uiso       1.00
      C201          C  0.9349315  0.0168044  0.7004089    0.00000       Uiso       1.00
      H129          H  0.9028673  0.0031689  0.7046556    0.00000       Uiso       1.00
      H130          H  0.9067038  0.0194697  0.7646058    0.00000       Uiso       1.00
      H131          H  0.9456330  0.0311226  0.7426458    0.00000       Uiso       1.00
      C202          C  0.8615714  0.9744267  0.7467850    0.00000       Uiso       1.00
      C203          C  0.8380322  0.9630458  0.7592505    0.00000       Uiso       1.00
      C204          C  0.8716575  0.9613234  0.7325474    0.00000       Uiso       1.00
      C205          C  0.8589035  0.9384549  0.7298033    0.00000       Uiso       1.00
      C206          C  0.8355098  0.9274673  0.7417240    0.00000       Uiso       1.00
      C207          C  0.8252677  0.9401042  0.7567127    0.00000       Uiso       1.00
      H132          H  0.8295000  0.9721702  0.7709216    0.00000       Uiso       1.00
      H133          H  0.8894519  0.9683608  0.7234046    0.00000       Uiso       1.00
      H134          H  0.8675093  0.9294217  0.7180634    0.00000       Uiso       1.00
      C208          C  0.8716113  0.0134853  0.7413642    0.00000       Uiso       1.00
      C209          C  0.8840661  0.0370300  0.7410727    0.00000       Uiso       1.00
      C210          C  0.8573785  0.0033928  0.7324094    0.00000       Uiso       1.00
      C211          C  0.8546286  0.0161456  0.7250518    0.00000       Uiso       1.00
      C212          C  0.8665387  0.0395445  0.7255529    0.00000       Uiso       1.00
      C213          C  0.8815225  0.0497934  0.7334461    0.00000       Uiso       1.00
      H135          H  0.8957332  0.0455675  0.7470609    0.00000       Uiso       1.00
      H136          H  0.8482432  0.9855934  0.7307832    0.00000       Uiso       1.00
      H137          H  0.8428926  0.0075344  0.7191499    0.00000       Uiso       1.00
      C214          C  0.8661950  0.0034434  0.7757967    0.00000       Uiso       1.00
      C215          C  0.8659088  0.9909880  0.7871671    0.00000       Uiso       1.00
      C216          C  0.8572333  0.0176717  0.7889087    0.00000       Uiso       1.00
      C217          C  0.8498744  0.0204183  0.8117748    0.00000       Uiso       1.00
      C218          C  0.8503814  0.0085089  0.8227516    0.00000       Uiso       1.00
      C219          C  0.8582811  0.9935282  0.8101065    0.00000       Uiso       1.00
      H138          H  0.8719026  0.9793237  0.7780361    0.00000       Uiso       1.00
      H139          H  0.8556025  0.0268053  0.7818801    0.00000       Uiso       1.00
      H140          H  0.8439669  0.0321512  0.8208146    0.00000       Uiso       1.00
       S45          S  0.7952492  0.9269174  0.7735376    0.00000       Uiso       1.00
      O133          O  0.7855538  0.9036940  0.7683681    0.00000       Uiso       1.00
      O134          O  0.7876332  0.9369434  0.7689583    0.00000       Uiso       1.00
      O135          O  0.7883677  0.9299480  0.7983582    0.00000       Uiso       1.00
      H141          H  0.7724479  0.9229657  0.8072938    0.00000       Uiso       1.00
       S46          S  0.8983336  0.0798194  0.7334726    0.00000       Uiso       1.00
      O136          O  0.8931598  0.0895125  0.7251251    0.00000       Uiso       1.00
      O137          O  0.9213783  0.0862182  0.7196231    0.00000       Uiso       1.00
      O138          O  0.8934005  0.0880206  0.7574118    0.00000       Uiso       1.00
      H142          H  0.9023177  0.1039449  0.7574387    0.00000       Uiso       1.00
       S47          S  0.8583158  0.9767175  0.8232796    0.00000       Uiso       1.00
      O139          O  0.8499659  0.9818875  0.8465024    0.00000       Uiso       1.00
      O140          O  0.8805442  0.9813109  0.8132401    0.00000       Uiso       1.00
      O141          O  0.8434139  0.9518930  0.8202524    0.00000       Uiso       1.00
      H143          H  0.8434308  0.9429650  0.8272275    0.00000       Uiso       1.00
       S48          S  0.9481047  0.0167764  0.6703846    0.00000       Uiso       1.00
      O142          O  0.9713238  0.0251367  0.6606787    0.00000       Uiso       1.00
      O143          O  0.9452878  0.0306144  0.6639975    0.00000       Uiso       1.00
      O144          O  0.9373038  0.9928339  0.6621860    0.00000       Uiso       1.00
      H144          H  0.9442760  0.9928062  0.6462625    0.00000       Uiso       1.00
      C220          C  0.3748880  0.8748330  0.3749450    0.00000       Uiso       1.00
      C221          C  0.2699845  0.7389684  0.3036922    0.00000       Uiso       1.00
      C222          C  0.2825463  0.7620434  0.2990847    0.00000       Uiso       1.00
      C223          C  0.2819813  0.7696283  0.2842058    0.00000       Uiso       1.00
      C224          C  0.2692401  0.7543022  0.2738232    0.00000       Uiso       1.00
      C225          C  0.2568790  0.7311848  0.2782298    0.00000       Uiso       1.00
      C226          C  0.2573173  0.7236052  0.2932304    0.00000       Uiso       1.00
      H145          H  0.2698128  0.7327024  0.3153811    0.00000       Uiso       1.00
      H146          H  0.2478025  0.7058406  0.2969883    0.00000       Uiso       1.00
      H147          H  0.2691000  0.7605522  0.2623510    0.00000       Uiso       1.00
      C227          C  0.3545660  0.7990233  0.4876345    0.00000       Uiso       1.00
      C228          C  0.3440666  0.8036411  0.5107127    0.00000       Uiso       1.00
      C229          C  0.3627195  0.7841409  0.4800323    0.00000       Uiso       1.00
      C230          C  0.3601517  0.7737652  0.4953446    0.00000       Uiso       1.00
      C231          C  0.3494093  0.7781822  0.5184652    0.00000       Uiso       1.00
      C232          C  0.3413879  0.7931861  0.5260621    0.00000       Uiso       1.00
      H148          H  0.3379700  0.8153328  0.5169918    0.00000       Uiso       1.00
      H149          H  0.3331487  0.7969521  0.5438294    0.00000       Uiso       1.00
      H150          H  0.3665442  0.7622902  0.4890814    0.00000       Uiso       1.00
      C233          C  0.3193930  0.9875565  0.4508714    0.00000       Uiso       1.00
      C234          C  0.3345031  0.0106335  0.4462628    0.00000       Uiso       1.00
      C235          C  0.2963635  0.9799610  0.4657610    0.00000       Uiso       1.00
      C236          C  0.2885546  0.9952779  0.4761527    0.00000       Uiso       1.00
      C237          C  0.3037070  0.0183973  0.4717449    0.00000       Uiso       1.00
      C238          C  0.3267259  0.0259875  0.4567338    0.00000       Uiso       1.00
      H151          H  0.3522861  0.0169073  0.4345660    0.00000       Uiso       1.00
      H152          H  0.3387250  0.0437531  0.4529748    0.00000       Uiso       1.00
      H153          H  0.2706922  0.9890199  0.4876329    0.00000       Uiso       1.00
      C239          C  0.5430468  0.9507089  0.2621895    0.00000       Uiso       1.00
      C240          C  0.5509985  0.9460899  0.2391123    0.00000       Uiso       1.00
      C241          C  0.5584878  0.9656018  0.2697811    0.00000       Uiso       1.00
      C242          C  0.5816057  0.9759867  0.2544596    0.00000       Uiso       1.00
      C243          C  0.5895573  0.9715685  0.2313403    0.00000       Uiso       1.00
      C244          C  0.5741217  0.9565540  0.2237538    0.00000       Uiso       1.00
      H154          H  0.5394838  0.9343902  0.2328411    0.00000       Uiso       1.00
      H155          H  0.5798766  0.9527870  0.2059876    0.00000       Uiso       1.00
      H156          H  0.5932157  0.9874697  0.2607148    0.00000       Uiso       1.00
       S49          S  0.3765333  0.7782330  0.4506238    0.00000       Uiso       1.00
      O145          O  0.3831272  0.7628559  0.4473366    0.00000       Uiso       1.00
      O146          O  0.3957673  0.7984328  0.4389150    0.00000       Uiso       1.00
      O147          O  0.3604624  0.7680386  0.4417574    0.00000       Uiso       1.00
      H157          H  0.3677803  0.7649084  0.4261573    0.00000       Uiso       1.00
       S50          S  0.2766514  0.9505551  0.4716575    0.00000       Uiso       1.00
      O148          O  0.2546859  0.9472749  0.4870444    0.00000       Uiso       1.00
      O149          O  0.2821236  0.9423282  0.4811083    0.00000       Uiso       1.00
      O150          O  0.2776776  0.9379340  0.4499024    0.00000       Uiso       1.00
      H158          H  0.2672329  0.9223340  0.4530147    0.00000       Uiso       1.00
       S51          S  0.5488135  0.9715115  0.2991877    0.00000       Uiso       1.00
      O151          O  0.5675031  0.9868999  0.3024637    0.00000       Uiso       1.00
      O152          O  0.5361560  0.9513147  0.3108937    0.00000       Uiso       1.00
      O153          O  0.5340562  0.9816922  0.3080679    0.00000       Uiso       1.00
      H159          H  0.5289107  0.9848233  0.3236670    0.00000       Uiso       1.00
       S52          S  0.2975539  0.7990324  0.2783111    0.00000       Uiso       1.00
      O154          O  0.2942359  0.8023013  0.2629355    0.00000       Uiso       1.00
      O155          O  0.3207087  0.8072721  0.2688475    0.00000       Uiso       1.00
      O156          O  0.2894470  0.8116503  0.3000693    0.00000       Uiso       1.00
      H160          H  0.2977054  0.8272493  0.2969580    0.00000       Uiso       1.00
      C245          C  0.3013980  0.7910714  0.3423825    0.00000       Uiso       1.00
      C246          C  0.3217829  0.8102096  0.3309423    0.00000       Uiso       1.00
      C247          C  0.3291473  0.8131953  0.3088770    0.00000       Uiso       1.00
      C248          C  0.3166279  0.7975600  0.2985508    0.00000       Uiso       1.00
      C249          C  0.2961079  0.7785089  0.3100682    0.00000       Uiso       1.00
      C250          C  0.2886931  0.7755217  0.3321783    0.00000       Uiso       1.00
      H161          H  0.2954167  0.7880192  0.3592056    0.00000       Uiso       1.00
      H162          H  0.3231744  0.8003260  0.2814189    0.00000       Uiso       1.00
      C251          C  0.3634419  0.8308592  0.4395105    0.00000       Uiso       1.00
      C252          C  0.3647014  0.8423080  0.4586492    0.00000       Uiso       1.00
      C253          C  0.3590684  0.8087925  0.4365104    0.00000       Uiso       1.00
      C254          C  0.3559698  0.7984733  0.4521321    0.00000       Uiso       1.00
      C255          C  0.3574515  0.8099993  0.4711836    0.00000       Uiso       1.00
      C256          C  0.3618740  0.8321108  0.4741853    0.00000       Uiso       1.00
      H163          H  0.3676271  0.8591326  0.4617124    0.00000       Uiso       1.00
      H164          H  0.3521928  0.7813401  0.4493555    0.00000       Uiso       1.00
      C257          C  0.3423563  0.9394183  0.4189861    0.00000       Uiso       1.00
      C258          C  0.3525315  0.9585519  0.4075505    0.00000       Uiso       1.00
      C259          C  0.3246763  0.9364280  0.4410560    0.00000       Uiso       1.00
      C260          C  0.3174546  0.9520543  0.4513910    0.00000       Uiso       1.00
      C261          C  0.3274847  0.9711007  0.4398783    0.00000       Uiso       1.00
      C262          C  0.3451605  0.9740925  0.4177637    0.00000       Uiso       1.00
      H165          H  0.3664201  0.9616076  0.3907239    0.00000       Uiso       1.00
      H166          H  0.3041090  0.9492853  0.4685260    0.00000       Uiso       1.00
      C263          C  0.4719709  0.9188451  0.3103413    0.00000       Uiso       1.00
      C264          C  0.4809213  0.9074010  0.2911978    0.00000       Uiso       1.00
      C265          C  0.4866600  0.9409162  0.3133371    0.00000       Uiso       1.00
      C266          C  0.5094996  0.9512443  0.2977064    0.00000       Uiso       1.00
      C267          C  0.5185080  0.9397231  0.2786500    0.00000       Uiso       1.00
      C268          C  0.5038247  0.9176072  0.2756528    0.00000       Uiso       1.00
      H167          H  0.4700883  0.8905730  0.2881381    0.00000       Uiso       1.00
      H168          H  0.5200757  0.9683805  0.3004802    0.00000       Uiso       1.00
       S53          S  0.3549543  0.8377075  0.2934104    0.00000       Uiso       1.00
      O157          O  0.3587544  0.8368769  0.2715838    0.00000       Uiso       1.00
      O158          O  0.3729290  0.8384294  0.2917484    0.00000       Uiso       1.00
      O159          O  0.3534560  0.8586808  0.3055811    0.00000       Uiso       1.00
      H169          H  0.3671418  0.8716903  0.2973922    0.00000       Uiso       1.00
       S54          S  0.2623027  0.7516934  0.3481822    0.00000       Uiso       1.00
      O160          O  0.2521676  0.7380867  0.3347622    0.00000       Uiso       1.00
      O161          O  0.2479912  0.7591628  0.3673738    0.00000       Uiso       1.00
      O162          O  0.2661920  0.7380518  0.3556048    0.00000       Uiso       1.00
      H170          H  0.2522006  0.7254146  0.3641024    0.00000       Uiso       1.00
       S55          S  0.4763122  0.9563887  0.3378563    0.00000       Uiso       1.00
      O163          O  0.4943269  0.9782208  0.3370355    0.00000       Uiso       1.00
      O164          O  0.4664178  0.9450999  0.3573254    0.00000       Uiso       1.00
      O165          O  0.4587346  0.9581628  0.3386369    0.00000       Uiso       1.00
      H171          H  0.4532312  0.9663598  0.3516427    0.00000       Uiso       1.00
       S56          S  0.5142194  0.9015984  0.2518173    0.00000       Uiso       1.00
      O166          O  0.5377669  0.9150212  0.2382167    0.00000       Uiso       1.00
      O167          O  0.5037111  0.8946902  0.2391475    0.00000       Uiso       1.00
      O168          O  0.5089833  0.8809410  0.2598499    0.00000       Uiso       1.00
      H172          H  0.5144837  0.8724360  0.2472168    0.00000       Uiso       1.00
       S57          S  0.3105276  0.9119209  0.4565174    0.00000       Uiso       1.00
      O169          O  0.2933352  0.9127455  0.4783500    0.00000       Uiso       1.00
      O170          O  0.3261347  0.9112142  0.4581643    0.00000       Uiso       1.00
      O171          O  0.3002254  0.8909423  0.4443520    0.00000       Uiso       1.00
      H173          H  0.2927251  0.8779355  0.4525380    0.00000       Uiso       1.00
       S58          S  0.3585786  0.9979150  0.4017656    0.00000       Uiso       1.00
      O172          O  0.3486217  0.0115133  0.4151945    0.00000       Uiso       1.00
      O173          O  0.3559767  0.9904380  0.3825814    0.00000       Uiso       1.00
      O174          O  0.3835361  0.0115703  0.3943301    0.00000       Uiso       1.00
      H174          H  0.3906671  0.0242044  0.3858356    0.00000       Uiso       1.00
       S59          S  0.3644516  0.8481255  0.4980148    0.00000       Uiso       1.00
      O175          O  0.3609967  0.8347116  0.5116065    0.00000       Uiso       1.00
      O176          O  0.3481726  0.8550219  0.5106966    0.00000       Uiso       1.00
      O177          O  0.3879009  0.8687907  0.4899738    0.00000       Uiso       1.00
      H175          H  0.3892784  0.8772990  0.5026037    0.00000       Uiso       1.00
       S60          S  0.3577577  0.7933148  0.4119965    0.00000       Uiso       1.00
      O178          O  0.3531353  0.7714885  0.4128115    0.00000       Uiso       1.00
      O179          O  0.3786121  0.8046081  0.3925224    0.00000       Uiso       1.00
      O180          O  0.3391708  0.7915248  0.4112324    0.00000       Uiso       1.00
      H176          H  0.3384710  0.7833250  0.3982295    0.00000       Uiso       1.00
      C269          C  0.3379117  0.8469263  0.3749226    0.00000       Uiso       1.00
      C270          C  0.3614511  0.8580106  0.3627536    0.00000       Uiso       1.00
      C271          C  0.3715291  0.8538599  0.3395637    0.00000       Uiso       1.00
      C272          C  0.3587685  0.8383528  0.3294582    0.00000       Uiso       1.00
      C273          C  0.3353754  0.8268695  0.3418745    0.00000       Uiso       1.00
      C274          C  0.3251403  0.8316147  0.3647546    0.00000       Uiso       1.00
      H177          H  0.3293848  0.8500639  0.3925804    0.00000       Uiso       1.00
      H178          H  0.3893222  0.8625190  0.3287993    0.00000       Uiso       1.00
      H179          H  0.3673691  0.8352201  0.3118179    0.00000       Uiso       1.00
      C275          C  0.3715215  0.8626491  0.3917520    0.00000       Uiso       1.00
      C276          C  0.3839866  0.8748229  0.4028311    0.00000       Uiso       1.00
      C277          C  0.3573002  0.8394611  0.3958931    0.00000       Uiso       1.00
      C278          C  0.3545708  0.8293625  0.4113867    0.00000       Uiso       1.00
      C279          C  0.3664909  0.8417839  0.4228652    0.00000       Uiso       1.00
      C280          C  0.3814636  0.8646619  0.4181289    0.00000       Uiso       1.00
      H180          H  0.3956458  0.8924794  0.3997002    0.00000       Uiso       1.00
      H181          H  0.3481590  0.8286929  0.3872366    0.00000       Uiso       1.00
      H182          H  0.3428428  0.8117236  0.4145128    0.00000       Uiso       1.00
      C281          C  0.3660702  0.8916455  0.3871464    0.00000       Uiso       1.00
      C282          C  0.3657632  0.9027193  0.3749881    0.00000       Uiso       1.00
      C283          C  0.3571181  0.8957967  0.4103358    0.00000       Uiso       1.00
      C284          C  0.3497478  0.9112949  0.4204503    0.00000       Uiso       1.00
      C285          C  0.3502333  0.9227680  0.4080443    0.00000       Uiso       1.00
      C286          C  0.3581240  0.9180218  0.3851652    0.00000       Uiso       1.00
      H183          H  0.3717490  0.8995807  0.3573314    0.00000       Uiso       1.00
      H184          H  0.3555037  0.8871449  0.4210929    0.00000       Uiso       1.00
      H185          H  0.3438484  0.9144288  0.4380895    0.00000       Uiso       1.00
      C287          C  0.4005093  0.8870268  0.3581281    0.00000       Uiso       1.00
      C288          C  0.4118907  0.8748635  0.3470379    0.00000       Uiso       1.00
      C289          C  0.4136045  0.9102145  0.3539883    0.00000       Uiso       1.00
      C290          C  0.4364649  0.9203221  0.3384857    0.00000       Uiso       1.00
      C291          C  0.4474525  0.9079108  0.3269963    0.00000       Uiso       1.00
      C292          C  0.4348243  0.8850336  0.3317309    0.00000       Uiso       1.00
      H186          H  0.4027728  0.8572081  0.3501673    0.00000       Uiso       1.00
      H187          H  0.4065669  0.9209756  0.3626526    0.00000       Uiso       1.00
      H188          H  0.4454915  0.9379598  0.3353613    0.00000       Uiso       1.00
       S61          S  0.3982869  0.8815129  0.4313301    0.00000       Uiso       1.00
      O181          O  0.3931339  0.8679996  0.4461888    0.00000       Uiso       1.00
      O182          O  0.3936953  0.8991538  0.4435332    0.00000       Uiso       1.00
      O183          O  0.4231018  0.8914266  0.4133953    0.00000       Uiso       1.00
      H189          H  0.4320365  0.9003744  0.4203836    0.00000       Uiso       1.00
       S62          S  0.3581312  0.9312157  0.3683334    0.00000       Uiso       1.00
      O184          O  0.3497726  0.9460805  0.3818614    0.00000       Uiso       1.00
      O185          O  0.3442862  0.9145566  0.3591308    0.00000       Uiso       1.00
      O186          O  0.3820608  0.9443485  0.3493333    0.00000       Uiso       1.00
      H190          H  0.3820774  0.9513444  0.3403923    0.00000       Uiso       1.00
       S63          S  0.4480125  0.8681958  0.3185156    0.00000       Uiso       1.00
      O187          O  0.4712270  0.8817171  0.3036487    0.00000       Uiso       1.00
      O188          O  0.4379789  0.8505488  0.3063188    0.00000       Uiso       1.00
      O189          O  0.4450010  0.8582910  0.3364401    0.00000       Uiso       1.00
      H191          H  0.4519840  0.8493501  0.3294442    0.00000       Uiso       1.00
       S64          S  0.2951219  0.8184075  0.3815998    0.00000       Uiso       1.00
      O190          O  0.2854189  0.8035346  0.3680799    0.00000       Uiso       1.00
      O191          O  0.2887211  0.8350576  0.3908114    0.00000       Uiso       1.00
      O192          O  0.2869398  0.8052817  0.4005930    0.00000       Uiso       1.00
      H192          H  0.2710195  0.7982787  0.4095411    0.00000       Uiso       1.00
      C293          C  0.1249995  0.7501684  0.0000572    0.00000       Uiso       1.00
      C294          C  0.9488614  0.6452223  0.0404277    0.00000       Uiso       1.00
      C295          C  0.9568225  0.6578013  0.0555449    0.00000       Uiso       1.00
      C296          C  0.9413888  0.6572499  0.0785808    0.00000       Uiso       1.00
      C297          C  0.9182686  0.6445054  0.0863886    0.00000       Uiso       1.00
      C298          C  0.9103073  0.6321272  0.0712293    0.00000       Uiso       1.00
      C299          C  0.9257358  0.6325518  0.0482039    0.00000       Uiso       1.00
      H193          H  0.9603706  0.6450399  0.0226394    0.00000       Uiso       1.00
      H194          H  0.9199736  0.6230236  0.0361989    0.00000       Uiso       1.00
      H195          H  0.9066644  0.6443762  0.1042561    0.00000       Uiso       1.00
      C300          C  0.2172924  0.7297378  0.8318381    0.00000       Uiso       1.00
      C301          C  0.2298678  0.7192369  0.8238714    0.00000       Uiso       1.00
      C302          C  0.2178368  0.7378777  0.8164042    0.00000       Uiso       1.00
      C303          C  0.2305710  0.7352948  0.7932782    0.00000       Uiso       1.00
      C304          C  0.2429456  0.7245508  0.7853115    0.00000       Uiso       1.00
      C305          C  0.2425280  0.7165430  0.8007402    0.00000       Uiso       1.00
      H196          H  0.2300554  0.7131506  0.8353806    0.00000       Uiso       1.00
      H197          H  0.2520537  0.7083030  0.7949736    0.00000       Uiso       1.00
      H198          H  0.2306951  0.7416770  0.7816739    0.00000       Uiso       1.00
      C306          C  0.1454723  0.6947653  0.0923401    0.00000       Uiso       1.00
      C307          C  0.1559788  0.7098907  0.1049108    0.00000       Uiso       1.00
      C308          C  0.1373326  0.6717326  0.0928882    0.00000       Uiso       1.00
      C309          C  0.1399212  0.6639363  0.1056212    0.00000       Uiso       1.00
      C310          C  0.1506707  0.6791040  0.1179910    0.00000       Uiso       1.00
      C311          C  0.1586783  0.7021261  0.1175698    0.00000       Uiso       1.00
      H199          H  0.1620651  0.7276766  0.1050957    0.00000       Uiso       1.00
      H200          H  0.1669226  0.7141374  0.1270918    0.00000       Uiso       1.00
      H201          H  0.1335391  0.6460711  0.1057481    0.00000       Uiso       1.00
      C312          C  0.1804119  0.9183704  0.0205052    0.00000       Uiso       1.00
      C313          C  0.1652911  0.9263247  0.0310184    0.00000       Uiso       1.00
      C314          C  0.2034409  0.9338143  0.0123552    0.00000       Uiso       1.00
      C315          C  0.2112384  0.9569381  0.0149402    0.00000       Uiso       1.00
      C316          C  0.1960755  0.9648925  0.0256965    0.00000       Uiso       1.00
      C317          C  0.1730569  0.9494538  0.0337144    0.00000       Uiso       1.00
      H202          H  0.1475080  0.9148075  0.0371127    0.00000       Uiso       1.00
      H203          H  0.1610494  0.9552107  0.0419641    0.00000       Uiso       1.00
      H204          H  0.2291006  0.9685503  0.0085501    0.00000       Uiso       1.00
       S65          S  0.2022465  0.7516932  0.8260979    0.00000       Uiso       1.00
      O193          O  0.2055449  0.7582719  0.8074126    0.00000       Uiso       1.00
      O194          O  0.2097773  0.7709419  0.8387692    0.00000       Uiso       1.00
      O195          O  0.1773159  0.7356244  0.8408518    0.00000       Uiso       1.00
      H205          H  0.1690360  0.7429432  0.8460077    0.00000       Uiso       1.00
       S66          S  0.1235101  0.6520004  0.0773041    0.00000       Uiso       1.00
      O196          O  0.1169330  0.6300349  0.0806053    0.00000       Uiso       1.00
      O197          O  0.1384227  0.6574585  0.0541476    0.00000       Uiso       1.00
      O198          O  0.1027848  0.6530246  0.0854212    0.00000       Uiso       1.00
      H206          H  0.0954487  0.6425692  0.0771567    0.00000       Uiso       1.00
       S67          S  0.2231679  0.9241373  0.9985231    0.00000       Uiso       1.00
      O199          O  0.2451304  0.9428308  0.9919361    0.00000       Uiso       1.00
      O200          O  0.2222078  0.9114622  0.9792782    0.00000       Uiso       1.00
      O201          O  0.2172970  0.9093910  0.0145842    0.00000       Uiso       1.00
      H207          H  0.2277474  0.9042435  0.0072570    0.00000       Uiso       1.00
       S68          S  0.9510756  0.6728446  0.0983025    0.00000       Uiso       1.00
      O202          O  0.9323919  0.6695380  0.1202734    0.00000       Uiso       1.00
      O203          O  0.9647643  0.6960006  0.0928449    0.00000       Uiso       1.00
      O204          O  0.9647264  0.6647429  0.0972630    0.00000       Uiso       1.00
      H208          H  0.9698783  0.6730129  0.1077127    0.00000       Uiso       1.00
      C318          C  0.0189570  0.6766510  0.0223955    0.00000       Uiso       1.00
      C319          C  0.0279062  0.6970490  0.0325851    0.00000       Uiso       1.00
      C320          C  0.0132133  0.7044227  0.0502783    0.00000       Uiso       1.00
      C321          C  0.9903710  0.6918995  0.0574989    0.00000       Uiso       1.00
      C322          C  0.9813639  0.6713665  0.0474544    0.00000       Uiso       1.00
      C323          C  0.9960513  0.6639425  0.0297653    0.00000       Uiso       1.00
      H209          H  0.0297926  0.6706622  0.0084967    0.00000       Uiso       1.00
      H210          H  0.9797916  0.6984533  0.0708550    0.00000       Uiso       1.00
      C324          C  0.1780764  0.7386599  0.9029395    0.00000       Uiso       1.00
      C325          C  0.1984705  0.7399204  0.8939811    0.00000       Uiso       1.00
      C326          C  0.1706960  0.7342699  0.8882499    0.00000       Uiso       1.00
      C327          C  0.1832091  0.7311565  0.8654018    0.00000       Uiso       1.00
      C328          C  0.2037381  0.7326392  0.8563856    0.00000       Uiso       1.00
      C329          C  0.2111688  0.7370781  0.8710696    0.00000       Uiso       1.00
      H211          H  0.2044642  0.7428585  0.9048140    0.00000       Uiso       1.00
      H212          H  0.1766506  0.7273670  0.8548253    0.00000       Uiso       1.00
      C330          C  0.1365327  0.7176894  0.0531280    0.00000       Uiso       1.00
      C331          C  0.1352814  0.7278824  0.0735226    0.00000       Uiso       1.00
      C332          C  0.1409193  0.7000048  0.0457458    0.00000       Uiso       1.00
      C333          C  0.1440382  0.6927957  0.0582574    0.00000       Uiso       1.00
      C334          C  0.1425648  0.7028435  0.0787871    0.00000       Uiso       1.00
      C335          C  0.1381293  0.7205241  0.0862197    0.00000       Uiso       1.00
      H213          H  0.1323461  0.7417751  0.0795176    0.00000       Uiso       1.00
      H214          H  0.1478247  0.6794459  0.0516972    0.00000       Uiso       1.00
      C336          C  0.1574838  0.8472762  0.0115757    0.00000       Uiso       1.00
      C337          C  0.1472901  0.8562208  0.0103292    0.00000       Uiso       1.00
      C338          C  0.1751706  0.8619772  0.0159541    0.00000       Uiso       1.00
      C339          C  0.1823810  0.8848228  0.0190699    0.00000       Uiso       1.00
      C340          C  0.1723323  0.8938254  0.0176012    0.00000       Uiso       1.00
      C341          C  0.1546497  0.8791301  0.0131739    0.00000       Uiso       1.00
      H215          H  0.1333960  0.8453791  0.0074003    0.00000       Uiso       1.00
      H216          H  0.1957325  0.8954082  0.0228503    0.00000       Uiso       1.00
       S69          S  0.0235600  0.7302470  0.0644456    0.00000       Uiso       1.00
      O205          O  0.0055412  0.7340544  0.0816494    0.00000       Uiso       1.00
      O206          O  0.0398658  0.7482151  0.0488474    0.00000       Uiso       1.00
      O207          O  0.0342370  0.7287627  0.0747417    0.00000       Uiso       1.00
      H217          H  0.0397373  0.7424577  0.0822518    0.00000       Uiso       1.00
       S70          S  0.9856587  0.6375353  0.0163282    0.00000       Uiso       1.00
      O208          O  0.9621081  0.6273986  0.0262871    0.00000       Uiso       1.00
      O209          O  0.9905401  0.6232284  0.0189151    0.00000       Uiso       1.00
      O210          O  0.9969605  0.6414081  0.9913689    0.00000       Uiso       1.00
      H218          H  0.9914634  0.6274080  0.9842279    0.00000       Uiso       1.00
       S71          S  0.1893427  0.8516368  0.0172486    0.00000       Uiso       1.00
      O211          O  0.2065386  0.8696634  0.0218792    0.00000       Uiso       1.00
      O212          O  0.1989090  0.8417289  0.9963802    0.00000       Uiso       1.00
      O213          O  0.1725540  0.8340684  0.0358273    0.00000       Uiso       1.00
      H219          H  0.1800567  0.8285689  0.0365186    0.00000       Uiso       1.00
       S72          S  0.1412078  0.8895165  0.0106119    0.00000       Uiso       1.00
      O214          O  0.1511562  0.9130716  0.0140834    0.00000       Uiso       1.00
      O215          O  0.1180371  0.8790125  0.0268921    0.00000       Uiso       1.00
      O216          O  0.1439947  0.8842614  0.9871560    0.00000       Uiso       1.00
      H220          H  0.1368615  0.8897575  0.9857869    0.00000       Uiso       1.00
       S73          S  0.1422203  0.6858335  0.0199255    0.00000       Uiso       1.00
      O217          O  0.1468589  0.6686398  0.0161079    0.00000       Uiso       1.00
      O218          O  0.1594663  0.7014322  0.0019571    0.00000       Uiso       1.00
      O219          O  0.1197535  0.6755226  0.0214245    0.00000       Uiso       1.00
      H221          H  0.1204331  0.6680104  0.0077317    0.00000       Uiso       1.00
       S74          S  0.1355611  0.7339646  0.1126233    0.00000       Uiso       1.00
      O220          O  0.1390371  0.7240177  0.1227480    0.00000       Uiso       1.00
      O221          O  0.1137815  0.7313658  0.1269421    0.00000       Uiso       1.00
      O222          O  0.1530809  0.7589260  0.1087486    0.00000       Uiso       1.00
      H222          H  0.1517235  0.7660688  0.1227470    0.00000       Uiso       1.00
       S75          S  0.2375714  0.7396583  0.8606652    0.00000       Uiso       1.00
      O223          O  0.2476975  0.7361868  0.8371100    0.00000       Uiso       1.00
      O224          O  0.2339788  0.7233871  0.8711605    0.00000       Uiso       1.00
      O225          O  0.2529820  0.7631192  0.8659154    0.00000       Uiso       1.00
      H223          H  0.2669870  0.7644981  0.8604099    0.00000       Uiso       1.00
       S76          S  0.1448762  0.7329569  0.8986082    0.00000       Uiso       1.00
      O226          O  0.1410606  0.7283166  0.8805912    0.00000       Uiso       1.00
      O227          O  0.1462609  0.7538209  0.9085207    0.00000       Uiso       1.00
      O228          O  0.1255330  0.7143772  0.9161779    0.00000       Uiso       1.00
      H224          H  0.1118328  0.7136761  0.9216869    0.00000       Uiso       1.00
      C342          C  0.0880048  0.7131838  0.0091658    0.00000       Uiso       1.00
      C343          C  0.0993752  0.7367280  0.0088747    0.00000       Uiso       1.00
      C344          C  0.0862672  0.7468082  0.0178417    0.00000       Uiso       1.00
      C345          C  0.0634045  0.7340440  0.0252109    0.00000       Uiso       1.00
      C346          C  0.0524274  0.7106454  0.0247094    0.00000       Uiso       1.00
      C347          C  0.0650689  0.7004089  0.0168039    0.00000       Uiso       1.00
      H225          H  0.0971331  0.7046555  0.0031684    0.00000       Uiso       1.00
      H226          H  0.0932966  0.7646058  0.0194691    0.00000       Uiso       1.00
      H227          H  0.0543674  0.7426458  0.0311220    0.00000       Uiso       1.00
      C348          C  0.1384294  0.7467858  0.9744262    0.00000       Uiso       1.00
      C349          C  0.1619686  0.7592512  0.9630452    0.00000       Uiso       1.00
      C350          C  0.1283434  0.7325482  0.9613228    0.00000       Uiso       1.00
      C351          C  0.1410974  0.7298040  0.9384544    0.00000       Uiso       1.00
      C352          C  0.1644910  0.7417248  0.9274667    0.00000       Uiso       1.00
      C353          C  0.1747331  0.7567134  0.9401037    0.00000       Uiso       1.00
      H228          H  0.1705009  0.7709224  0.9721696    0.00000       Uiso       1.00
      H229          H  0.1105489  0.7234054  0.9683603    0.00000       Uiso       1.00
      H230          H  0.1324914  0.7180641  0.9294212    0.00000       Uiso       1.00
      C354          C  0.1283891  0.7413641  0.0134847    0.00000       Uiso       1.00
      C355          C  0.1159344  0.7410727  0.0370294    0.00000       Uiso       1.00
      C356          C  0.1426219  0.7324094  0.0033922    0.00000       Uiso       1.00
      C357          C  0.1453718  0.7250517  0.0161450    0.00000       Uiso       1.00
      C358          C  0.1334618  0.7255529  0.0395439    0.00000       Uiso       1.00
      C359          C  0.1184780  0.7334461  0.0497928    0.00000       Uiso       1.00
      H231          H  0.1042672  0.7470608  0.0455669    0.00000       Uiso       1.00
      H232          H  0.1517576  0.7307839  0.9855929    0.00000       Uiso       1.00
      H233          H  0.1571077  0.7191499  0.0075338    0.00000       Uiso       1.00
      C360          C  0.1338054  0.7757967  0.0034427    0.00000       Uiso       1.00
      C361          C  0.1340920  0.7871680  0.9909874    0.00000       Uiso       1.00
      C362          C  0.1427671  0.7889087  0.0176711    0.00000       Uiso       1.00
      C363          C  0.1501261  0.8117747  0.0204176    0.00000       Uiso       1.00
      C364          C  0.1496191  0.8227516  0.0085082    0.00000       Uiso       1.00
      C365          C  0.1417197  0.8101072  0.9935275    0.00000       Uiso       1.00
      H234          H  0.1280983  0.7780369  0.9793231    0.00000       Uiso       1.00
      H235          H  0.1443979  0.7818800  0.0268047    0.00000       Uiso       1.00
      H236          H  0.1560336  0.8208145  0.0321505    0.00000       Uiso       1.00
       S77          S  0.2047516  0.7735382  0.9269168    0.00000       Uiso       1.00
      O229          O  0.2144470  0.7683688  0.9036934    0.00000       Uiso       1.00
      O230          O  0.2123676  0.7689590  0.9369428    0.00000       Uiso       1.00
      O231          O  0.2116330  0.7983590  0.9299474    0.00000       Uiso       1.00
      H237          H  0.2275529  0.8072945  0.9229650    0.00000       Uiso       1.00
       S78          S  0.1016669  0.7334726  0.0798188    0.00000       Uiso       1.00
      O232          O  0.1068406  0.7251251  0.0895119    0.00000       Uiso       1.00
      O233          O  0.0786222  0.7196231  0.0862176    0.00000       Uiso       1.00
      O234          O  0.1066000  0.7574119  0.0880200    0.00000       Uiso       1.00
      H238          H  0.0976827  0.7574387  0.1039443    0.00000       Uiso       1.00
       S79          S  0.1416850  0.8232803  0.9767169    0.00000       Uiso       1.00
      O235          O  0.1500349  0.8465031  0.9818868    0.00000       Uiso       1.00
      O236          O  0.1194566  0.8132408  0.9813102    0.00000       Uiso       1.00
      O237          O  0.1565869  0.8202532  0.9518924    0.00000       Uiso       1.00
      H239          H  0.1565701  0.8272282  0.9429643    0.00000       Uiso       1.00
       S80          S  0.0518956  0.6703846  0.0167759    0.00000       Uiso       1.00
      O238          O  0.0286765  0.6606787  0.0251361    0.00000       Uiso       1.00
      O239          O  0.0547126  0.6639975  0.0306139    0.00000       Uiso       1.00
      O240          O  0.0626971  0.6621867  0.9928333    0.00000       Uiso       1.00
      H240          H  0.0557248  0.6462632  0.9928057    0.00000       Uiso       1.00
      C366          C  0.0000003  0.2495538  0.2500009    0.00000       Uiso       1.00
      C367          C  0.9288223  0.2187006  0.4261433    0.00000       Uiso       1.00
      C368          C  0.9241999  0.2291979  0.4181936    0.00000       Uiso       1.00
      C369          C  0.9093138  0.2373447  0.4336413    0.00000       Uiso       1.00
      C370          C  0.8989393  0.2347723  0.4567639    0.00000       Uiso       1.00
      C371          C  0.9033611  0.2240319  0.4647135    0.00000       Uiso       1.00
      C372          C  0.9183686  0.2160171  0.4492711    0.00000       Uiso       1.00
      H241          H  0.9405168  0.2126092  0.4146234    0.00000       Uiso       1.00
      H242          H  0.9221382  0.2077797  0.4550244    0.00000       Uiso       1.00
      H243          H  0.8874614  0.2411597  0.4683790    0.00000       Uiso       1.00
      C373          C  0.1127485  0.1941092  0.1576088    0.00000       Uiso       1.00
      C374          C  0.1358180  0.2092289  0.1450366    0.00000       Uiso       1.00
      C375          C  0.1051633  0.1710763  0.1570472    0.00000       Uiso       1.00
      C376          C  0.1204838  0.1632742  0.1442991    0.00000       Uiso       1.00
      C377          C  0.1435956  0.1784364  0.1319277    0.00000       Uiso       1.00
      C378          C  0.1511755  0.2014586  0.1323626    0.00000       Uiso       1.00
      H244          H  0.1420838  0.2270148  0.1448622    0.00000       Uiso       1.00
      H245          H  0.1689358  0.2134656  0.1228398    0.00000       Uiso       1.00
      H246          H  0.1142337  0.1454090  0.1441619    0.00000       Uiso       1.00
      C379          C  0.0758009  0.4177466  0.2296447    0.00000       Uiso       1.00
      C380          C  0.0711784  0.4256962  0.2191475    0.00000       Uiso       1.00
      C381          C  0.0906870  0.4331942  0.2377916    0.00000       Uiso       1.00
      C382          C  0.1010615  0.4563168  0.2352192    0.00000       Uiso       1.00
      C383          C  0.0966397  0.4642664  0.2244788    0.00000       Uiso       1.00
      C384          C  0.0816322  0.4488240  0.2164640    0.00000       Uiso       1.00
      H247          H  0.0594840  0.4141763  0.2130561    0.00000       Uiso       1.00
      H248          H  0.0778626  0.4545773  0.2082266    0.00000       Uiso       1.00
      H249          H  0.1125393  0.4679319  0.2416065    0.00000       Uiso       1.00
      C385          C  0.8872522  0.1571617  0.1945563    0.00000       Uiso       1.00
      C386          C  0.8641827  0.1445896  0.2096761    0.00000       Uiso       1.00
      C387          C  0.8948373  0.1566001  0.1715234    0.00000       Uiso       1.00
      C388          C  0.8795169  0.1438520  0.1637213    0.00000       Uiso       1.00
      C389          C  0.8564051  0.1314806  0.1788835    0.00000       Uiso       1.00
      C390          C  0.8488252  0.1319155  0.2019058    0.00000       Uiso       1.00
      H250          H  0.8579169  0.1444151  0.2274619    0.00000       Uiso       1.00
      H251          H  0.8310649  0.1223927  0.2139128    0.00000       Uiso       1.00
      H252          H  0.8857669  0.1437147  0.1458561    0.00000       Uiso       1.00
       S81          S  0.0757663  0.1513510  0.1726329    0.00000       Uiso       1.00
      O241          O  0.0724958  0.1293840  0.1693165    0.00000       Uiso       1.00
      O242          O  0.0640480  0.1522992  0.1651083    0.00000       Uiso       1.00
      O243          O  0.0669019  0.1572393  0.1975729    0.00000       Uiso       1.00
      H253          H  0.0513078  0.1467894  0.2058504    0.00000       Uiso       1.00
       S82          S  0.0966010  0.4235225  0.2516028    0.00000       Uiso       1.00
      O244          O  0.1119811  0.4422190  0.2581898    0.00000       Uiso       1.00
      O245          O  0.1060616  0.4098247  0.2366738    0.00000       Uiso       1.00
      O246          O  0.0748577  0.4098804  0.2723257    0.00000       Uiso       1.00
      H254          H  0.0779793  0.4047367  0.2796557    0.00000       Uiso       1.00
       S83          S  0.9242343  0.1721858  0.1517981    0.00000       Uiso       1.00
      O247          O  0.9275048  0.1688693  0.1298312    0.00000       Uiso       1.00
      O248          O  0.9359527  0.1646611  0.1527463    0.00000       Uiso       1.00
      O249          O  0.9330987  0.1971258  0.1576864    0.00000       Uiso       1.00
      H255          H  0.9486928  0.2054033  0.1472365    0.00000       Uiso       1.00
       S84          S  0.9033998  0.2511559  0.4239695    0.00000       Uiso       1.00
      O250          O  0.8880197  0.2577429  0.4426661    0.00000       Uiso       1.00
      O251          O  0.8939391  0.2362269  0.4102717    0.00000       Uiso       1.00
      O252          O  0.9251431  0.2718787  0.4103275    0.00000       Uiso       1.00
      H256          H  0.9220214  0.2792088  0.4051837    0.00000       Uiso       1.00
      C391          C  0.9674800  0.2393526  0.3560488    0.00000       Uiso       1.00
      C392          C  0.9560318  0.2380883  0.3471035    0.00000       Uiso       1.00
      C393          C  0.9339672  0.2337050  0.3618024    0.00000       Uiso       1.00
      C394          C  0.9236494  0.2306017  0.3846467    0.00000       Uiso       1.00
      C395          C  0.9351746  0.2320883  0.3936499    0.00000       Uiso       1.00
      C396          C  0.9572840  0.2365206  0.3789567    0.00000       Uiso       1.00
      H257          H  0.9843032  0.2422858  0.3452083    0.00000       Uiso       1.00
      H258          H  0.9065178  0.2268171  0.3952304    0.00000       Uiso       1.00
      C397          C  0.0646000  0.2170509  0.1968670    0.00000       Uiso       1.00
      C398          C  0.0837290  0.2272346  0.1764734    0.00000       Uiso       1.00
      C399          C  0.0616177  0.1993696  0.2042328    0.00000       Uiso       1.00
      C400          C  0.0772473  0.1921550  0.1917063    0.00000       Uiso       1.00
      C401          C  0.0962891  0.2021935  0.1711777    0.00000       Uiso       1.00
      C402          C  0.0992730  0.2198706  0.1637615    0.00000       Uiso       1.00
      H259          H  0.0867785  0.2411245  0.1704907    0.00000       Uiso       1.00
      H260          H  0.0744843  0.1788082  0.1982541    0.00000       Uiso       1.00
      C403          C  0.0439690  0.3466564  0.2385350    0.00000       Uiso       1.00
      C404          C  0.0325208  0.3556017  0.2397994    0.00000       Uiso       1.00
      C405          C  0.0660337  0.3613553  0.2341517    0.00000       Uiso       1.00
      C406          C  0.0763515  0.3841996  0.2310485    0.00000       Uiso       1.00
      C407          C  0.0648262  0.3932029  0.2325352    0.00000       Uiso       1.00
      C408          C  0.0427167  0.3785096  0.2369674    0.00000       Uiso       1.00
      H261          H  0.0156976  0.3447612  0.2427326    0.00000       Uiso       1.00
      H262          H  0.0934830  0.3947833  0.2272639    0.00000       Uiso       1.00
      C409          C  0.9354007  0.1964199  0.2174979    0.00000       Uiso       1.00
      C410          C  0.9162715  0.1760265  0.2276819    0.00000       Uiso       1.00
      C411          C  0.9383833  0.2037855  0.1998164    0.00000       Uiso       1.00
      C412          C  0.9227535  0.1912591  0.1926018    0.00000       Uiso       1.00
      C413          C  0.9037116  0.1707306  0.2026406    0.00000       Uiso       1.00
      C414          C  0.9007275  0.1633146  0.2203179    0.00000       Uiso       1.00
      H263          H  0.9132220  0.1700440  0.2415720    0.00000       Uiso       1.00
      H264          H  0.9255167  0.1978068  0.1792549    0.00000       Uiso       1.00
       S85          S  0.9184901  0.2323877  0.3514615    0.00000       Uiso       1.00
      O253          O  0.8966660  0.2277556  0.3694859    0.00000       Uiso       1.00
      O254          O  0.9168355  0.2151265  0.3351410    0.00000       Uiso       1.00
      O255          O  0.9306414  0.2548505  0.3407992    0.00000       Uiso       1.00
      H265          H  0.9224470  0.2541623  0.3353019    0.00000       Uiso       1.00
       S86          S  0.9732975  0.2391052  0.3893443    0.00000       Uiso       1.00
      O256          O  0.9598852  0.2356442  0.4128978    0.00000       Uiso       1.00
      O257          O  0.9924760  0.2608890  0.3844738    0.00000       Uiso       1.00
      O258          O  0.9807341  0.2215787  0.3780246    0.00000       Uiso       1.00
      H266          H  0.9892367  0.2229447  0.3835190    0.00000       Uiso       1.00
       S87          S  0.9628840  0.2296033  0.1856565    0.00000       Uiso       1.00
      O259          O  0.9620517  0.2334029  0.1684643    0.00000       Uiso       1.00
      O260          O  0.9823588  0.2282185  0.1760812    0.00000       Uiso       1.00
      O261          O  0.9636552  0.2489622  0.2024622    0.00000       Uiso       1.00
      H267          H  0.9766512  0.2626614  0.1949659    0.00000       Uiso       1.00
       S88          S  0.8769110  0.1369136  0.2337468    0.00000       Uiso       1.00
      O262          O  0.8633089  0.1267724  0.2237954    0.00000       Uiso       1.00
      O263          O  0.8642427  0.1405216  0.2569264    0.00000       Uiso       1.00
      O264          O  0.8849598  0.1215039  0.2309434    0.00000       Uiso       1.00
      H268          H  0.8723367  0.1074998  0.2380698    0.00000       Uiso       1.00
       S89          S  0.0815107  0.3510143  0.2328344    0.00000       Uiso       1.00
      O265          O  0.1033348  0.3690386  0.2282023    0.00000       Uiso       1.00
      O266          O  0.0831652  0.3346938  0.2155731    0.00000       Uiso       1.00
      O267          O  0.0693594  0.3403519  0.2552972    0.00000       Uiso       1.00
      H269          H  0.0775538  0.3348546  0.2546089    0.00000       Uiso       1.00
       S90          S  0.0267033  0.3888973  0.2395521    0.00000       Uiso       1.00
      O268          O  0.0401156  0.4124508  0.2360912    0.00000       Uiso       1.00
      O269          O  0.0075247  0.3840268  0.2613359    0.00000       Uiso       1.00
      O270          O  0.0192668  0.3775776  0.2220256    0.00000       Uiso       1.00
      H270          H  0.0107642  0.3830721  0.2233917    0.00000       Uiso       1.00
       S91          S  0.1230893  0.2332992  0.1373603    0.00000       Uiso       1.00
      O271          O  0.1366914  0.2233478  0.1272191    0.00000       Uiso       1.00
      O272          O  0.1357577  0.2564789  0.1409680    0.00000       Uiso       1.00
      O273          O  0.1150403  0.2304955  0.1219508    0.00000       Uiso       1.00
      H271          H  0.1276632  0.2376217  0.1079466    0.00000       Uiso       1.00
       S92          S  0.0371171  0.1852101  0.2300509    0.00000       Uiso       1.00
      O274          O  0.0379495  0.1680181  0.2338507    0.00000       Uiso       1.00
      O275          O  0.0176422  0.1756346  0.2286664    0.00000       Uiso       1.00
      O276          O  0.0363463  0.2020161  0.2494095    0.00000       Uiso       1.00
      H272          H  0.0233504  0.1945201  0.2631089    0.00000       Uiso       1.00
      C415          C  0.9999864  0.2586524  0.2870037    0.00000       Uiso       1.00
      C416          C  0.9878181  0.2461819  0.2756276    0.00000       Uiso       1.00
      C417          C  0.9646363  0.2319506  0.2887332    0.00000       Uiso       1.00
      C418          C  0.9545390  0.2292167  0.3115980    0.00000       Uiso       1.00
      C419          C  0.9669551  0.2411421  0.3225802    0.00000       Uiso       1.00
      C420          C  0.9898265  0.2561249  0.3099419    0.00000       Uiso       1.00
      H273          H  0.0176375  0.2703194  0.2778780    0.00000       Uiso       1.00
      H274          H  0.9538722  0.2228048  0.2817004    0.00000       Uiso       1.00
      H275          H  0.9369054  0.2174810  0.3206325    0.00000       Uiso       1.00
      C421          C  0.0168167  0.2407434  0.2365565    0.00000       Uiso       1.00
      C422          C  0.0278904  0.2404410  0.2130122    0.00000       Uiso       1.00
      C423          C  0.0209722  0.2317935  0.2466327    0.00000       Uiso       1.00
      C424          C  0.0364736  0.2244300  0.2338652    0.00000       Uiso       1.00
      C425          C  0.0479463  0.2249204  0.2104669    0.00000       Uiso       1.00
      C426          C  0.0431962  0.2328087  0.2002339    0.00000       Uiso       1.00
      H276          H  0.0247489  0.2464252  0.2044866    0.00000       Uiso       1.00
      H277          H  0.0123212  0.2301753  0.2644297    0.00000       Uiso       1.00
      H278          H  0.0396103  0.2185323  0.2424644    0.00000       Uiso       1.00
      C427          C  0.0121827  0.2751805  0.2466288    0.00000       Uiso       1.00
      C428          C  0.0000143  0.2865566  0.2590992    0.00000       Uiso       1.00
      C429          C  0.0353644  0.2882860  0.2323973    0.00000       Uiso       1.00
      C430          C  0.0454617  0.3111509  0.2296634    0.00000       Uiso       1.00
      C431          C  0.0330456  0.3221331  0.2415888    0.00000       Uiso       1.00
      C432          C  0.0101743  0.3094948  0.2565716    0.00000       Uiso       1.00
      H279          H  0.9823631  0.2774309  0.2707660    0.00000       Uiso       1.00
      H280          H  0.0461285  0.2812532  0.2232516    0.00000       Uiso       1.00
      H281          H  0.0630954  0.3201853  0.2179277    0.00000       Uiso       1.00
      C433          C  0.9831841  0.2361094  0.2411905    0.00000       Uiso       1.00
      C434          C  0.9721099  0.2125650  0.2408887    0.00000       Uiso       1.00
      C435          C  0.9790293  0.2461856  0.2322396    0.00000       Uiso       1.00
      C436          C  0.9635278  0.2334181  0.2248762    0.00000       Uiso       1.00
      C437          C  0.9520545  0.2100198  0.2253674    0.00000       Uiso       1.00
      C438          C  0.9568040  0.1997868  0.2332564    0.00000       Uiso       1.00
      H282          H  0.9752510  0.2040395  0.2468734    0.00000       Uiso       1.00
      H283          H  0.9876807  0.2639826  0.2306209    0.00000       Uiso       1.00
      H284          H  0.9603917  0.2420174  0.2189778    0.00000       Uiso       1.00
       S93          S  0.0563898  0.2328213  0.1702096    0.00000       Uiso       1.00
      O277          O  0.0712584  0.2244694  0.1605000    0.00000       Uiso       1.00
      O278          O  0.0685751  0.2550480  0.1626080    0.00000       Uiso       1.00
      O279          O  0.0384572  0.2179046  0.1633228    0.00000       Uiso       1.00
      H285          H  0.0454415  0.2179098  0.1473998    0.00000       Uiso       1.00
       S94          S  0.9933308  0.3226756  0.2734020    0.00000       Uiso       1.00
      O280          O  0.0068416  0.3458961  0.2682430    0.00000       Uiso       1.00
      O281          O  0.9841370  0.3198751  0.2964483    0.00000       Uiso       1.00
      O282          O  0.9743296  0.3118622  0.2684677    0.00000       Uiso       1.00
      H286          H  0.9653824  0.3188384  0.2773952    0.00000       Uiso       1.00
       S95          S  0.9436095  0.1697624  0.2332702    0.00000       Uiso       1.00
      O283          O  0.9287410  0.1600528  0.2249182    0.00000       Uiso       1.00
      O284          O  0.9314241  0.1621615  0.2554972    0.00000       Uiso       1.00
      O285          O  0.9615417  0.1628749  0.2183541    0.00000       Uiso       1.00
      H287          H  0.9545569  0.1469519  0.2183598    0.00000       Uiso       1.00
       S96          S  0.0066699  0.2729555  0.3231227    0.00000       Uiso       1.00
      O286          O  0.9931591  0.2677965  0.3463432    0.00000       Uiso       1.00
      O287          O  0.0158637  0.2960018  0.3203222    0.00000       Uiso       1.00
      O288          O  0.0256712  0.2680213  0.3123094    0.00000       Uiso       1.00
      H288          H  0.0346184  0.2769489  0.3192856    0.00000       Uiso       1.00
      C439          C  0.6204596  0.5804025  0.6517227    0.00000       Uiso       1.00
      C440          C  0.6253589  0.5754956  0.6641067    0.00000       Uiso       1.00
      C441          C  0.6187211  0.5536064  0.6664809    0.00000       Uiso       1.00
      C442          C  0.6229393  0.5490453  0.6797652    0.00000       Uiso       1.00
      C443          C  0.6325945  0.5660357  0.6921769    0.00000       Uiso       1.00
      C444          C  0.6389152  0.5879264  0.6898161    0.00000       Uiso       1.00
      C445          C  0.6370900  0.5932357  0.6746289    0.00000       Uiso       1.00
      O289          O  0.6083224  0.5650268  0.6412406    0.00000       Uiso       1.00
      H289          H  0.6440511  0.6007067  0.7008233    0.00000       Uiso       1.00
      C446          C  0.7229984  0.7277603  0.7103243    0.00000       Uiso       1.00
      C447          C  0.7106200  0.7104891  0.7005226    0.00000       Uiso       1.00
      C448          C  0.7082594  0.7148409  0.6853280    0.00000       Uiso       1.00
      C449          C  0.6950848  0.6973481  0.6763809    0.00000       Uiso       1.00
      C450          C  0.6827824  0.6752228  0.6835403    0.00000       Uiso       1.00
      C451          C  0.6850829  0.6712316  0.6991498    0.00000       Uiso       1.00
      C452          C  0.7001591  0.6882381  0.7064321    0.00000       Uiso       1.00
      O290          O  0.7334909  0.7503492  0.7069661    0.00000       Uiso       1.00
      H290          H  0.7168443  0.7318529  0.6803064    0.00000       Uiso       1.00
      H291          H  0.6945303  0.7013797  0.6639976    0.00000       Uiso       1.00
      H292          H  0.6741416  0.6550364  0.7066854    0.00000       Uiso       1.00
      C453          C  0.6645219  0.5666499  0.7549363    0.00000       Uiso       1.00
      C454          C  0.6743071  0.5888221  0.7500661    0.00000       Uiso       1.00
      C455          C  0.6894924  0.6063753  0.7567981    0.00000       Uiso       1.00
      C456          C  0.6984296  0.6285002  0.7525100    0.00000       Uiso       1.00
      C457          C  0.6912698  0.6336440  0.7426897    0.00000       Uiso       1.00
      C458          C  0.6756788  0.6157288  0.7363681    0.00000       Uiso       1.00
      C459          C  0.6684127  0.5933710  0.7382765    0.00000       Uiso       1.00
      O291          O  0.6679928  0.5595905  0.7669784    0.00000       Uiso       1.00
      H293          H  0.6945004  0.6027870  0.7652190    0.00000       Uiso       1.00
      H294          H  0.7107992  0.6414245  0.7571185    0.00000       Uiso       1.00
      H295          H  0.6681223  0.6190948  0.7311102    0.00000       Uiso       1.00
      C460          C  0.6495158  0.5493568  0.7484155    0.00000       Uiso       1.00
      C461          C  0.6440614  0.5531616  0.7358502    0.00000       Uiso       1.00
      C462          C  0.6288406  0.5356414  0.7291234    0.00000       Uiso       1.00
      C463          C  0.6244266  0.5397912  0.7157612    0.00000       Uiso       1.00
      C464          C  0.6361851  0.5613440  0.7075729    0.00000       Uiso       1.00
      C465          C  0.6516660  0.5787325  0.7142571    0.00000       Uiso       1.00
      C466          C  0.6545113  0.5753335  0.7296897    0.00000       Uiso       1.00
      O292          O  0.6416011  0.5287309  0.7550177    0.00000       Uiso       1.00
      H296          H  0.6625319  0.5947461  0.7064038    0.00000       Uiso       1.00
      C467          C  0.7252748  0.7235000  0.7253066    0.00000       Uiso       1.00
      C468          C  0.7160196  0.7016906  0.7307567    0.00000       Uiso       1.00
      C469          C  0.7183772  0.6973640  0.7459692    0.00000       Uiso       1.00
      C470          C  0.7097018  0.6754216  0.7505416    0.00000       Uiso       1.00
      C471          C  0.6997597  0.6573620  0.7389078    0.00000       Uiso       1.00
      C472          C  0.6979011  0.6621001  0.7233571    0.00000       Uiso       1.00
      C473          C  0.7042562  0.6837871  0.7203720    0.00000       Uiso       1.00
      O293          O  0.7379076  0.7427493  0.7333518    0.00000       Uiso       1.00
      H297          H  0.7267991  0.7110853  0.7544182    0.00000       Uiso       1.00
      H298          H  0.7110291  0.6728238  0.7631019    0.00000       Uiso       1.00
      H299          H  0.6926520  0.6490400  0.7125619    0.00000       Uiso       1.00
      C474          C  0.6269804  0.6019465  0.6495010    0.00000       Uiso       1.00
      C475          C  0.6395226  0.6199536  0.6587622    0.00000       Uiso       1.00
      C476          C  0.6461914  0.6418503  0.6564159    0.00000       Uiso       1.00
      C477          C  0.6594519  0.6597068  0.6650941    0.00000       Uiso       1.00
      C478          C  0.6675678  0.6562005  0.6750380    0.00000       Uiso       1.00
      C479          C  0.6609710  0.6340482  0.6768944    0.00000       Uiso       1.00
      C480          C  0.6456500  0.6157224  0.6705260    0.00000       Uiso       1.00
      O294          O  0.6203288  0.6034436  0.6369443    0.00000       Uiso       1.00
      H300          H  0.6408767  0.6449668  0.6479941    0.00000       Uiso       1.00
      H301          H  0.6633629  0.6761841  0.6637655    0.00000       Uiso       1.00
      H302          H  0.6687578  0.6310357  0.6821442    0.00000       Uiso       1.00
        B1          B  0.6084064  0.5798317  0.6319088    0.00000       Uiso       1.00
        B2          B  0.7429597  0.7596912  0.7216331    0.00000       Uiso       1.00
        B3          B  0.6533790  0.5354506  0.7668043    0.00000       Uiso       1.00
      H303          H  0.6104090  0.5400068  0.6579180    0.00000       Uiso       1.00
      H304          H  0.6183228  0.5320663  0.6803520    0.00000       Uiso       1.00
      H305          H  0.6201932  0.5187242  0.7343487    0.00000       Uiso       1.00
      H306          H  0.6119092  0.5258975  0.7117739    0.00000       Uiso       1.00
      C481          C  0.3795410  0.6517231  0.5804020    0.00000       Uiso       1.00
      C482          C  0.3746417  0.6641072  0.5754951    0.00000       Uiso       1.00
      C483          C  0.3812795  0.6664813  0.5536059    0.00000       Uiso       1.00
      C484          C  0.3770613  0.6797656  0.5490448    0.00000       Uiso       1.00
      C485          C  0.3674062  0.6921774  0.5660352    0.00000       Uiso       1.00
      C486          C  0.3610854  0.6898166  0.5879259    0.00000       Uiso       1.00
      C487          C  0.3629107  0.6746293  0.5932352    0.00000       Uiso       1.00
      O295          O  0.3916782  0.6412410  0.5650263    0.00000       Uiso       1.00
      H307          H  0.3559495  0.7008238  0.6007062    0.00000       Uiso       1.00
      C488          C  0.2770022  0.7103249  0.7277597    0.00000       Uiso       1.00
      C489          C  0.2893807  0.7005233  0.7104886    0.00000       Uiso       1.00
      C490          C  0.2917413  0.6853285  0.7148404    0.00000       Uiso       1.00
      C491          C  0.3049159  0.6763814  0.6973475    0.00000       Uiso       1.00
      C492          C  0.3172183  0.6835408  0.6752223    0.00000       Uiso       1.00
      C493          C  0.3149178  0.6991503  0.6712310    0.00000       Uiso       1.00
      C494          C  0.2998416  0.7064326  0.6882377    0.00000       Uiso       1.00
      O296          O  0.2665098  0.7069666  0.7503486    0.00000       Uiso       1.00
      H308          H  0.2831564  0.6803069  0.7318524    0.00000       Uiso       1.00
      H309          H  0.3054704  0.6639981  0.7013791    0.00000       Uiso       1.00
      H310          H  0.3258591  0.7066859  0.6550359    0.00000       Uiso       1.00
      C495          C  0.3354787  0.7549368  0.5666493    0.00000       Uiso       1.00
      C496          C  0.3256935  0.7500665  0.5888215    0.00000       Uiso       1.00
      C497          C  0.3105083  0.7567986  0.6063747    0.00000       Uiso       1.00
      C498          C  0.3015711  0.7525105  0.6284996    0.00000       Uiso       1.00
      C499          C  0.3087309  0.7426903  0.6336434    0.00000       Uiso       1.00
      C500          C  0.3243218  0.7363685  0.6157283    0.00000       Uiso       1.00
      C501          C  0.3315879  0.7382769  0.5933705    0.00000       Uiso       1.00
      O297          O  0.3320078  0.7669788  0.5595899    0.00000       Uiso       1.00
      H311          H  0.3055002  0.7652194  0.6027864    0.00000       Uiso       1.00
      H312          H  0.2892015  0.7571190  0.6414239    0.00000       Uiso       1.00
      H313          H  0.3318783  0.7311106  0.6190943    0.00000       Uiso       1.00
      C502          C  0.3504848  0.7484159  0.5493561    0.00000       Uiso       1.00
      C503          C  0.3559392  0.7358506  0.5531610    0.00000       Uiso       1.00
      C504          C  0.3711601  0.7291238  0.5356408    0.00000       Uiso       1.00
      C505          C  0.3755740  0.7157617  0.5397906    0.00000       Uiso       1.00
      C506          C  0.3638156  0.7075734  0.5613435    0.00000       Uiso       1.00
      C507          C  0.3483346  0.7142576  0.5787319    0.00000       Uiso       1.00
      C508          C  0.3454893  0.7296901  0.5753329    0.00000       Uiso       1.00
      O298          O  0.3583995  0.7550182  0.5287303    0.00000       Uiso       1.00
      H314          H  0.3374688  0.7064043  0.5947456    0.00000       Uiso       1.00
      C509          C  0.2747259  0.7253072  0.7234994    0.00000       Uiso       1.00
      C510          C  0.2839811  0.7307573  0.7016900    0.00000       Uiso       1.00
      C511          C  0.2816236  0.7459697  0.6973634    0.00000       Uiso       1.00
      C512          C  0.2902988  0.7505422  0.6754210    0.00000       Uiso       1.00
      C513          C  0.3002411  0.7389084  0.6573615    0.00000       Uiso       1.00
      C514          C  0.3020995  0.7233576  0.6620996    0.00000       Uiso       1.00
      C515          C  0.2957444  0.7203726  0.6837866    0.00000       Uiso       1.00
      O299          O  0.2620930  0.7333522  0.7427487    0.00000       Uiso       1.00
      H315          H  0.2732016  0.7544188  0.7110847    0.00000       Uiso       1.00
      H316          H  0.2889717  0.7631025  0.6728232    0.00000       Uiso       1.00
      H317          H  0.3073487  0.7125624  0.6490394    0.00000       Uiso       1.00
      C516          C  0.3730202  0.6495014  0.6019461    0.00000       Uiso       1.00
      C517          C  0.3604780  0.6587627  0.6199531    0.00000       Uiso       1.00
      C518          C  0.3538092  0.6564164  0.6418498    0.00000       Uiso       1.00
      C519          C  0.3405487  0.6650946  0.6597063    0.00000       Uiso       1.00
      C520          C  0.3324327  0.6750385  0.6562000    0.00000       Uiso       1.00
      C521          C  0.3390296  0.6768948  0.6340477    0.00000       Uiso       1.00
      C522          C  0.3543507  0.6705265  0.6157218    0.00000       Uiso       1.00
      O300          O  0.3796718  0.6369447  0.6034431    0.00000       Uiso       1.00
      H318          H  0.3591239  0.6479946  0.6449663    0.00000       Uiso       1.00
      H319          H  0.3366378  0.6637661  0.6761836    0.00000       Uiso       1.00
      H320          H  0.3312428  0.6821446  0.6310352    0.00000       Uiso       1.00
        B4          B  0.3915942  0.6319092  0.5798312    0.00000       Uiso       1.00
        B5          B  0.2570410  0.7216337  0.7596906    0.00000       Uiso       1.00
        B6          B  0.3466217  0.7668047  0.5354500    0.00000       Uiso       1.00
      H321          H  0.3895915  0.6579184  0.5400063    0.00000       Uiso       1.00
      H322          H  0.3816778  0.6803524  0.5320658    0.00000       Uiso       1.00
      H323          H  0.3798074  0.7343490  0.5187236    0.00000       Uiso       1.00
      H324          H  0.3880915  0.7117743  0.5258970    0.00000       Uiso       1.00
      C523          C  0.1472408  0.0805162  0.5957472    0.00000       Uiso       1.00
      C524          C  0.1645067  0.0756007  0.5818409    0.00000       Uiso       1.00
      C525          C  0.1601856  0.0537110  0.5752487    0.00000       Uiso       1.00
      C526          C  0.1776723  0.0490706  0.5622082    0.00000       Uiso       1.00
      C527          C  0.1997330  0.0660248  0.5566294    0.00000       Uiso       1.00
      C528          C  0.2037025  0.0879139  0.5636634    0.00000       Uiso       1.00
      C529          C  0.1867259  0.0932749  0.5746984    0.00000       Uiso       1.00
      O301          O  0.1246758  0.0651066  0.6046758    0.00000       Uiso       1.00
      H325          H  0.1431992  0.0402805  0.5801808    0.00000       Uiso       1.00
      H326          H  0.1736921  0.0321159  0.5567482    0.00000       Uiso       1.00
      H327          H  0.2198356  0.1006822  0.5617228    0.00000       Uiso       1.00
      C530          C  0.3082358  0.2277097  0.5374474    0.00000       Uiso       1.00
      C531          C  0.2860582  0.2104414  0.5457323    0.00000       Uiso       1.00
      C532          C  0.2684948  0.2147648  0.5567166    0.00000       Uiso       1.00
      C533          C  0.2463716  0.1972766  0.5658130    0.00000       Uiso       1.00
      C534          C  0.2412647  0.1752129  0.5653427    0.00000       Uiso       1.00
      C535          C  0.2591792  0.1712414  0.5544493    0.00000       Uiso       1.00
      C536          C  0.2815119  0.1882178  0.5431368    0.00000       Uiso       1.00
      O302          O  0.3153921  0.2502794  0.5392171    0.00000       Uiso       1.00
      H328          H  0.2720520  0.2317545  0.5580911    0.00000       Uiso       1.00
      H329          H  0.2334008  0.2012581  0.5733333    0.00000       Uiso       1.00
      H330          H  0.2558149  0.1551081  0.5558751    0.00000       Uiso       1.00
      C537          C  0.2944146  0.0666686  0.4929551    0.00000       Uiso       1.00
      C538          C  0.2993257  0.0888516  0.4963285    0.00000       Uiso       1.00
      C539          C  0.3212077  0.1064153  0.4854162    0.00000       Uiso       1.00
      C540          C  0.3258444  0.1285444  0.4898758    0.00000       Uiso       1.00
      C541          C  0.3088951  0.1336585  0.5063699    0.00000       Uiso       1.00
      C542          C  0.2870141  0.1157439  0.5173723    0.00000       Uiso       1.00
      C543          C  0.2816552  0.0934035  0.5114182    0.00000       Uiso       1.00
      O303          O  0.3098217  0.0595066  0.4793044    0.00000       Uiso       1.00
      H331          H  0.3346352  0.1028541  0.4733520    0.00000       Uiso       1.00
      H332          H  0.3427925  0.1415147  0.4804363    0.00000       Uiso       1.00
      H333          H  0.2742515  0.1191152  0.5315729    0.00000       Uiso       1.00
      C544          C  0.2729618  0.0494535  0.5040444    0.00000       Uiso       1.00
      C545          C  0.2549551  0.0532530  0.5181253    0.00000       Uiso       1.00
      C546          C  0.2330645  0.0357005  0.5290299    0.00000       Uiso       1.00
      C547          C  0.2152117  0.0397912  0.5421621    0.00000       Uiso       1.00
      C548          C  0.2187311  0.0613330  0.5435675    0.00000       Uiso       1.00
      C549          C  0.2408739  0.0787390  0.5322507    0.00000       Uiso       1.00
      C550          C  0.2591834  0.0753773  0.5209576    0.00000       Uiso       1.00
      O304          O  0.2715717  0.0288089  0.4989825    0.00000       Uiso       1.00
      H334          H  0.2299253  0.0188446  0.5273750    0.00000       Uiso       1.00
      H335          H  0.1987100  0.0259236  0.5509812    0.00000       Uiso       1.00
      H336          H  0.2438694  0.0947623  0.5310734    0.00000       Uiso       1.00
      C551          C  0.3254513  0.2234675  0.5270694    0.00000       Uiso       1.00
      C552          C  0.3216566  0.2016596  0.5231292    0.00000       Uiso       1.00
      C553          C  0.3392092  0.1973169  0.5121285    0.00000       Uiso       1.00
      C554          C  0.3351225  0.1753713  0.5073943    0.00000       Uiso       1.00
      C555          C  0.3135836  0.1573510  0.5123202    0.00000       Uiso       1.00
      C556          C  0.2961773  0.1620924  0.5231608    0.00000       Uiso       1.00
      C557          C  0.2995367  0.1837666  0.5301903    0.00000       Uiso       1.00
      O305          O  0.3460905  0.2427191  0.5206195    0.00000       Uiso       1.00
      H337          H  0.3560622  0.2110320  0.5073339    0.00000       Uiso       1.00
      H338          H  0.3489909  0.1727342  0.4997002    0.00000       Uiso       1.00
      H339          H  0.2801544  0.1490653  0.5249806    0.00000       Uiso       1.00
      C558          C  0.1514812  0.1019769  0.6025973    0.00000       Uiso       1.00
      C559          C  0.1732840  0.1199868  0.5948625    0.00000       Uiso       1.00
      C560          C  0.1776251  0.1418853  0.6014271    0.00000       Uiso       1.00
      C561          C  0.1995646  0.1597400  0.5926062    0.00000       Uiso       1.00
      C562          C  0.2175795  0.1562138  0.5759811    0.00000       Uiso       1.00
      C563          C  0.2128398  0.1340631  0.5694029    0.00000       Uiso       1.00
      C564          C  0.1911734  0.1157532  0.5797905    0.00000       Uiso       1.00
      O306          O  0.1322328  0.1033706  0.6167989    0.00000       Uiso       1.00
      H340          H  0.1639142  0.1450297  0.6134953    0.00000       Uiso       1.00
      H341          H  0.2022017  0.1762485  0.5987901    0.00000       Uiso       1.00
      H342          H  0.2258613  0.1310609  0.5551917    0.00000       Uiso       1.00
        B7          B  0.1153082  0.0798306  0.6180059    0.00000       Uiso       1.00
        B8          B  0.3394787  0.2596478  0.5284448    0.00000       Uiso       1.00
        B9          B  0.2951052  0.0354170  0.4832569    0.00000       Uiso       1.00
      C565          C  0.8527596  0.5957473  0.0805157    0.00000       Uiso       1.00
      C566          C  0.8354936  0.5818409  0.0756003    0.00000       Uiso       1.00
      C567          C  0.8398147  0.5752488  0.0537106    0.00000       Uiso       1.00
      C568          C  0.8223281  0.5622082  0.0490701    0.00000       Uiso       1.00
      C569          C  0.8002673  0.5566294  0.0660244    0.00000       Uiso       1.00
      C570          C  0.7962979  0.5636634  0.0879135    0.00000       Uiso       1.00
      C571          C  0.8132745  0.5746984  0.0932745    0.00000       Uiso       1.00
      O307          O  0.8753247  0.6046758  0.0651061    0.00000       Uiso       1.00
      H343          H  0.8568012  0.5801808  0.0402800    0.00000       Uiso       1.00
      H344          H  0.8263083  0.5567482  0.0321155    0.00000       Uiso       1.00
      H345          H  0.7801648  0.5617229  0.1006818    0.00000       Uiso       1.00
      C572          C  0.6917646  0.5374475  0.2277092    0.00000       Uiso       1.00
      C573          C  0.7139422  0.5457324  0.2104409    0.00000       Uiso       1.00
      C574          C  0.7315056  0.5567167  0.2147643    0.00000       Uiso       1.00
      C575          C  0.7536288  0.5658131  0.1972761    0.00000       Uiso       1.00
      C576          C  0.7587358  0.5653429  0.1752125    0.00000       Uiso       1.00
      C577          C  0.7408212  0.5544494  0.1712410    0.00000       Uiso       1.00
      C578          C  0.7184885  0.5431370  0.1882174    0.00000       Uiso       1.00
      O308          O  0.6846083  0.5392172  0.2502790    0.00000       Uiso       1.00
      H346          H  0.7279484  0.5580912  0.2317541    0.00000       Uiso       1.00
      H347          H  0.7665996  0.5733334  0.2012576    0.00000       Uiso       1.00
      H348          H  0.7441854  0.5558752  0.1551077    0.00000       Uiso       1.00
      C579          C  0.7055857  0.4929551  0.0666682    0.00000       Uiso       1.00
      C580          C  0.7006747  0.4963286  0.0888512    0.00000       Uiso       1.00
      C581          C  0.6787927  0.4854162  0.1064149    0.00000       Uiso       1.00
      C582          C  0.6741560  0.4898758  0.1285440    0.00000       Uiso       1.00
      C583          C  0.6911052  0.5063700  0.1336581    0.00000       Uiso       1.00
      C584          C  0.7129862  0.5173723  0.1157435    0.00000       Uiso       1.00
      C585          C  0.7183452  0.5114183  0.0934032    0.00000       Uiso       1.00
      O309          O  0.6901786  0.4793044  0.0595062    0.00000       Uiso       1.00
      H349          H  0.6653652  0.4733520  0.1028537    0.00000       Uiso       1.00
      H350          H  0.6572079  0.4804364  0.1415143    0.00000       Uiso       1.00
      H351          H  0.7257489  0.5315729  0.1191148    0.00000       Uiso       1.00
      C586          C  0.7270385  0.5040444  0.0494531    0.00000       Uiso       1.00
      C587          C  0.7450453  0.5181254  0.0532526    0.00000       Uiso       1.00
      C588          C  0.7669359  0.5290298  0.0357001    0.00000       Uiso       1.00
      C589          C  0.7847886  0.5421621  0.0397908    0.00000       Uiso       1.00
      C590          C  0.7812693  0.5435675  0.0613326    0.00000       Uiso       1.00
      C591          C  0.7591264  0.5322507  0.0787386    0.00000       Uiso       1.00
      C592          C  0.7408170  0.5209576  0.0753770    0.00000       Uiso       1.00
      O310          O  0.7284286  0.4989825  0.0288085    0.00000       Uiso       1.00
      H352          H  0.7700750  0.5273750  0.0188442    0.00000       Uiso       1.00
      H353          H  0.8012903  0.5509812  0.0259232    0.00000       Uiso       1.00
      H354          H  0.7561310  0.5310734  0.0947618    0.00000       Uiso       1.00
      C593          C  0.6745492  0.5270696  0.2234671    0.00000       Uiso       1.00
      C594          C  0.6783438  0.5231293  0.2016592    0.00000       Uiso       1.00
      C595          C  0.6607912  0.5121287  0.1973165    0.00000       Uiso       1.00
      C596          C  0.6648778  0.5073944  0.1753710    0.00000       Uiso       1.00
      C597          C  0.6864167  0.5123202  0.1573506    0.00000       Uiso       1.00
      C598          C  0.7038231  0.5231609  0.1620920    0.00000       Uiso       1.00
      C599          C  0.7004637  0.5301904  0.1837662    0.00000       Uiso       1.00
      O311          O  0.6539099  0.5206196  0.2427187    0.00000       Uiso       1.00
      H355          H  0.6439382  0.5073340  0.2110316    0.00000       Uiso       1.00
      H356          H  0.6510095  0.4997004  0.1727338    0.00000       Uiso       1.00
      H357          H  0.7198460  0.5249807  0.1490649    0.00000       Uiso       1.00
      C600          C  0.8485191  0.6025973  0.1019764    0.00000       Uiso       1.00
      C601          C  0.8267164  0.5948625  0.1199863    0.00000       Uiso       1.00
      C602          C  0.8223754  0.6014273  0.1418848    0.00000       Uiso       1.00
      C603          C  0.8004358  0.5926062  0.1597395    0.00000       Uiso       1.00
      C604          C  0.7824209  0.5759811  0.1562134    0.00000       Uiso       1.00
      C605          C  0.7871606  0.5694029  0.1340627    0.00000       Uiso       1.00
      C606          C  0.8088270  0.5797905  0.1157527    0.00000       Uiso       1.00
      O312          O  0.8677676  0.6167989  0.1033701    0.00000       Uiso       1.00
      H358          H  0.8360862  0.6134954  0.1450292    0.00000       Uiso       1.00
      H359          H  0.7977988  0.5987902  0.1762480    0.00000       Uiso       1.00
      H360          H  0.7741390  0.5551918  0.1310605    0.00000       Uiso       1.00
       B10          B  0.8846921  0.6180059  0.0798301    0.00000       Uiso       1.00
       B11          B  0.6605217  0.5284450  0.2596474    0.00000       Uiso       1.00
       B12          B  0.7048951  0.4832568  0.0354166    0.00000       Uiso       1.00
      C607          C  0.3530176  0.1830443  0.9952419    0.00000       Uiso       1.00
      C608          C  0.3357430  0.1608454  0.0001299    0.00000       Uiso       1.00
      C609          C  0.3400157  0.1432226  0.9934736    0.00000       Uiso       1.00
      C610          C  0.3225232  0.1211513  0.9976799    0.00000       Uiso       1.00
      C611          C  0.3004575  0.1160641  0.0073411    0.00000       Uiso       1.00
      C612          C  0.2964895  0.1339930  0.0136796    0.00000       Uiso       1.00
      C613          C  0.3134919  0.1563224  0.0118668    0.00000       Uiso       1.00
      O313          O  0.3756336  0.1902979  0.9831011    0.00000       Uiso       1.00
      H361          H  0.2803479  0.1306230  0.0188198    0.00000       Uiso       1.00
      C614          C  0.1918823  0.1691887  0.0978412    0.00000       Uiso       1.00
      C615          C  0.2140602  0.1741076  0.0854572    0.00000       Uiso       1.00
      C616          C  0.2316056  0.1960225  0.0831084    0.00000       Uiso       1.00
      C617          C  0.2537253  0.2006613  0.0699281    0.00000       Uiso       1.00
      C618          C  0.2588759  0.1836813  0.0576081    0.00000       Uiso       1.00
      C619          C  0.2409757  0.1617721  0.0598970    0.00000       Uiso       1.00
      C620          C  0.2186196  0.1564101  0.0749785    0.00000       Uiso       1.00
      O314          O  0.1847412  0.1846402  0.1083507    0.00000       Uiso       1.00
      H362          H  0.2280364  0.2094697  0.0917069    0.00000       Uiso       1.00
      H363          H  0.2666554  0.2176364  0.0693830    0.00000       Uiso       1.00
      H364          H  0.2443871  0.1489841  0.0489428    0.00000       Uiso       1.00
      C621          C  0.2058127  0.0219489  0.0392266    0.00000       Uiso       1.00
      C622          C  0.2008901  0.0392041  0.0490295    0.00000       Uiso       1.00
      C623          C  0.1789747  0.0348301  0.0642206    0.00000       Uiso       1.00
      C624          C  0.1743178  0.0523040  0.0731756    0.00000       Uiso       1.00
      C625          C  0.1912880  0.0744354  0.0660279    0.00000       Uiso       1.00
      C626          C  0.2131988  0.0784426  0.0504308    0.00000       Uiso       1.00
      C627          C  0.2185641  0.0614449  0.0431471    0.00000       Uiso       1.00
      O315          O  0.1903093  0.9993690  0.0426842    0.00000       Uiso       1.00
      H365          H  0.1655535  0.0178070  0.0692194    0.00000       Uiso       1.00
      H366          H  0.1573416  0.0482426  0.0855491    0.00000       Uiso       1.00
      H367          H  0.2260060  0.0946288  0.0428831    0.00000       Uiso       1.00
      C628          C  0.2273379  0.0261925  0.0242147    0.00000       Uiso       1.00
      C629          C  0.2453478  0.0480250  0.0187717    0.00000       Uiso       1.00
      C630          C  0.2672934  0.0524623  0.0035451    0.00000       Uiso       1.00
      C631          C  0.2850606  0.0743969  0.9991421    0.00000       Uiso       1.00
      C632          C  0.2814815  0.0923773  0.0109189    0.00000       Uiso       1.00
      C633          C  0.2593184  0.0875906  0.0264055    0.00000       Uiso       1.00
      C634          C  0.2410503  0.0659057  0.0292396    0.00000       Uiso       1.00
      O316          O  0.2286589  0.0068796  0.0162821    0.00000       Uiso       1.00
      H368          H  0.2563001  0.1005904  0.0372844    0.00000       Uiso       1.00
      C635          C  0.1746332  0.1476620  0.1001060    0.00000       Uiso       1.00
      C636          C  0.1784464  0.1296594  0.0908330    0.00000       Uiso       1.00
      C637          C  0.1608862  0.1077550  0.0931788    0.00000       Uiso       1.00
      C638          C  0.1649970  0.0899172  0.0844857    0.00000       Uiso       1.00
      C639          C  0.1865715  0.0934434  0.0745369    0.00000       Uiso       1.00
      C640          C  0.2039708  0.1155985  0.0726905    0.00000       Uiso       1.00
      C641          C  0.2005926  0.1339140  0.0790635    0.00000       Uiso       1.00
      O317          O  0.1539559  0.1462241  0.1127469    0.00000       Uiso       1.00
      H369          H  0.1440166  0.1045977  0.1016055    0.00000       Uiso       1.00
      H370          H  0.1511170  0.0734258  0.0858043    0.00000       Uiso       1.00
      H371          H  0.2200138  0.1185899  0.0674368    0.00000       Uiso       1.00
      C642          C  0.3487097  0.2002864  0.0017809    0.00000       Uiso       1.00
      C643          C  0.3269080  0.1964803  0.0143294    0.00000       Uiso       1.00
      C644          C  0.3225776  0.2140526  0.0210159    0.00000       Uiso       1.00
      C645          C  0.3006407  0.2099605  0.0342825    0.00000       Uiso       1.00
      C646          C  0.2825906  0.1883864  0.0423873    0.00000       Uiso       1.00
      C647          C  0.2873389  0.1709767  0.0357727    0.00000       Uiso       1.00
      C648          C  0.3090267  0.1743499  0.0204450    0.00000       Uiso       1.00
      O318          O  0.3679096  0.2210012  0.9951385    0.00000       Uiso       1.00
      H372          H  0.3363065  0.2309117  0.0157102    0.00000       Uiso       1.00
      H373          H  0.2980521  0.2238543  0.0382071    0.00000       Uiso       1.00
      H374          H  0.2743095  0.1549218  0.0435509    0.00000       Uiso       1.00
       B13          B  0.3848706  0.2143548  0.9832025    0.00000       Uiso       1.00
       B14          B  0.1606120  0.1698356  0.1178170    0.00000       Uiso       1.00
       B15          B  0.2051015  0.9900237  0.0280553    0.00000       Uiso       1.00
      H375          H  0.3568891  0.1465055  0.9851570    0.00000       Uiso       1.00
      H376          H  0.3265586  0.1082038  0.9930499    0.00000       Uiso       1.00
      H377          H  0.2707225  0.0389696  0.9948834    0.00000       Uiso       1.00
      H378          H  0.3015642  0.0770155  0.9866195    0.00000       Uiso       1.00
      C649          C  0.8821982  0.2125883  0.5218129    0.00000       Uiso       1.00
      C650          C  0.8788424  0.2043118  0.5390729    0.00000       Uiso       1.00
      C651          C  0.8897606  0.1933403  0.5347371    0.00000       Uiso       1.00
      C652          C  0.8853186  0.1842518  0.5522176    0.00000       Uiso       1.00
      C653          C  0.8688365  0.1847167  0.5742861    0.00000       Uiso       1.00
      C654          C  0.8578281  0.1955974  0.5782703    0.00000       Uiso       1.00
      C655          C  0.8637646  0.2069026  0.5613011    0.00000       Uiso       1.00
      O319          O  0.8958355  0.2108213  0.4992402    0.00000       Uiso       1.00
      H379          H  0.9018156  0.1919694  0.5177441    0.00000       Uiso       1.00
      H380          H  0.8947621  0.1767415  0.5482264    0.00000       Uiso       1.00
      H381          H  0.8436362  0.1941668  0.5944084    0.00000       Uiso       1.00
      C656          C  0.7794833  0.2570409  0.6828936    0.00000       Uiso       1.00
      C657          C  0.7933774  0.2536715  0.6607068    0.00000       Uiso       1.00
      C658          C  0.7999517  0.2645769  0.6431502    0.00000       Uiso       1.00
      C659          C  0.8129805  0.2601213  0.6210172    0.00000       Uiso       1.00
      C660          C  0.8185650  0.2436374  0.6158931    0.00000       Uiso       1.00
      C661          C  0.8115488  0.2326416  0.6338009    0.00000       Uiso       1.00
      C662          C  0.8005260  0.2385929  0.6561438    0.00000       Uiso       1.00
      O320          O  0.7705511  0.2706807  0.6900662    0.00000       Uiso       1.00
      H382          H  0.7950145  0.2766326  0.6467205    0.00000       Uiso       1.00
      H383          H  0.8184267  0.2695557  0.6080524    0.00000       Uiso       1.00
      H384          H  0.8134937  0.2184477  0.6304230    0.00000       Uiso       1.00
      C663          C  0.8378428  0.1543394  0.6689544    0.00000       Uiso       1.00
      C664          C  0.8295521  0.1682343  0.6738816    0.00000       Uiso       1.00
      C665          C  0.8185794  0.1748233  0.6957744    0.00000       Uiso       1.00
      C666          C  0.8094773  0.1878522  0.7004269    0.00000       Uiso       1.00
      C667          C  0.8099300  0.1934215  0.6834824    0.00000       Uiso       1.00
      C668          C  0.8208118  0.1863905  0.6615902    0.00000       Uiso       1.00
      C669          C  0.8321297  0.1753681  0.6562164    0.00000       Uiso       1.00
      O321          O  0.8360904  0.1454202  0.6843543    0.00000       Uiso       1.00
      H385          H  0.8172184  0.1698982  0.7091982    0.00000       Uiso       1.00
      H386          H  0.8019663  0.1933105  0.7173831    0.00000       Uiso       1.00
      H387          H  0.8193730  0.1883232  0.6488299    0.00000       Uiso       1.00
      C670          C  0.8482093  0.1474925  0.6474909    0.00000       Uiso       1.00
      C671          C  0.8521317  0.1552195  0.6294892    0.00000       Uiso       1.00
      C672          C  0.8631207  0.1486579  0.6075879    0.00000       Uiso       1.00
      C673          C  0.8678373  0.1574713  0.5897409    0.00000       Uiso       1.00
      C674          C  0.8629049  0.1740860  0.5932774    0.00000       Uiso       1.00
      C675          C  0.8520761  0.1806612  0.6154309    0.00000       Uiso       1.00
      C676          C  0.8450643  0.1702801  0.6337342    0.00000       Uiso       1.00
      O322          O  0.8546677  0.1333027  0.6460851    0.00000       Uiso       1.00
      H388          H  0.8679202  0.1365982  0.6044357    0.00000       Uiso       1.00
      H389          H  0.8755226  0.1512897  0.5732302    0.00000       Uiso       1.00
      H390          H  0.8502516  0.1948655  0.6184399    0.00000       Uiso       1.00
      C677          C  0.7726508  0.2459583  0.7001023    0.00000       Uiso       1.00
      C678          C  0.7803919  0.2318887  0.6962914    0.00000       Uiso       1.00
      C679          C  0.7738449  0.2209910  0.7138373    0.00000       Uiso       1.00
      C680          C  0.7826718  0.2078705  0.7097349    0.00000       Uiso       1.00
      C681          C  0.7992853  0.2064705  0.6881874    0.00000       Uiso       1.00
      C682          C  0.8058460  0.2177806  0.6707882    0.00000       Uiso       1.00
      C683          C  0.7954519  0.2290611  0.6741624    0.00000       Uiso       1.00
      O323          O  0.7584593  0.2510143  0.7207524    0.00000       Uiso       1.00
      H391          H  0.7617858  0.2226425  0.7306972    0.00000       Uiso       1.00
      H392          H  0.7765014  0.1990562  0.7235981    0.00000       Uiso       1.00
      H393          H  0.8200485  0.2189629  0.6547601    0.00000       Uiso       1.00
      C684          C  0.8711032  0.2229536  0.5260676    0.00000       Uiso       1.00
      C685          C  0.8570334  0.2268893  0.5478801    0.00000       Uiso       1.00
      C686          C  0.8461227  0.2378771  0.5522360    0.00000       Uiso       1.00
      C687          C  0.8330021  0.2426074  0.5741856    0.00000       Uiso       1.00
      C688          C  0.8316145  0.2376909  0.5921966    0.00000       Uiso       1.00
      C689          C  0.8429373  0.2268632  0.5874422    0.00000       Uiso       1.00
      C690          C  0.8542193  0.2198370  0.5657645    0.00000       Uiso       1.00
      O324          O  0.8761470  0.2293964  0.5068226    0.00000       Uiso       1.00
      H394          H  0.8477632  0.2426650  0.5385286    0.00000       Uiso       1.00
      H395          H  0.8241777  0.2502910  0.5768335    0.00000       Uiso       1.00
      H396          H  0.8441278  0.2250512  0.6004616    0.00000       Uiso       1.00
       B16          B  0.8918681  0.2215808  0.4898841    0.00000       Uiso       1.00
       B17          B  0.7572386  0.2667288  0.7141551    0.00000       Uiso       1.00
       B18          B  0.8468605  0.1320995  0.6696211    0.00000       Uiso       1.00
      C691          C  0.7947887  0.0402371  0.0223361    0.00000       Uiso       1.00
      C692          C  0.7997088  0.0500511  0.0396162    0.00000       Uiso       1.00
      C693          C  0.8215972  0.0653005  0.0353485    0.00000       Uiso       1.00
      C694          C  0.8261721  0.0740876  0.0528468    0.00000       Uiso       1.00
      C695          C  0.8091972  0.0667623  0.0749125    0.00000       Uiso       1.00
      C696          C  0.7873071  0.0511941  0.0788763    0.00000       Uiso       1.00
      C697          C  0.7819834  0.0440519  0.0618699    0.00000       Uiso       1.00
      O325          O  0.8101506  0.0434663  0.9997153    0.00000       Uiso       1.00
      H397          H  0.7745391  0.0435570  0.0950168    0.00000       Uiso       1.00
      C698          C  0.6475287  0.9954897  0.1834962    0.00000       Uiso       1.00
      C699          C  0.6647862  0.0003732  0.1613149    0.00000       Uiso       1.00
      C700          C  0.6604190  0.9936522  0.1437655    0.00000       Uiso       1.00
      C701          C  0.6778980  0.9979605  0.1216419    0.00000       Uiso       1.00
      C702          C  0.7000248  0.0077818  0.1164901    0.00000       Uiso       1.00
      C703          C  0.7040310  0.0140815  0.1343941    0.00000       Uiso       1.00
      C704          C  0.6870377  0.0121612  0.1567562    0.00000       Uiso       1.00
      O326          O  0.6249415  0.9833965  0.1906366    0.00000       Uiso       1.00
      H398          H  0.6434064  0.9852266  0.1473348    0.00000       Uiso       1.00
      H399          H  0.6738550  0.9933686  0.1087094    0.00000       Uiso       1.00
      H400          H  0.7202280  0.0193339  0.1309802    0.00000       Uiso       1.00
      C705          C  0.8086536  0.0981181  0.1695856    0.00000       Uiso       1.00
      C706          C  0.7864814  0.0857332  0.1745070    0.00000       Uiso       1.00
      C707          C  0.7689410  0.0833751  0.1964281    0.00000       Uiso       1.00
      C708          C  0.7468162  0.0701895  0.2010831    0.00000       Uiso       1.00
      C709          C  0.7416604  0.0578782  0.1841042    0.00000       Uiso       1.00
      C710          C  0.7595630  0.0601927  0.1621875    0.00000       Uiso       1.00
      C711          C  0.7819192  0.0752819  0.1568257    0.00000       Uiso       1.00
      O327          O  0.8157254  0.1086553  0.1850946    0.00000       Uiso       1.00
      H401          H  0.7725391  0.0919775  0.2098554    0.00000       Uiso       1.00
      H402          H  0.7339016  0.0696424  0.2180646    0.00000       Uiso       1.00
      H403          H  0.7561888  0.0492644  0.1493720    0.00000       Uiso       1.00
      C712          C  0.8259341  0.1003954  0.1480547    0.00000       Uiso       1.00
      C713          C  0.8221156  0.0911281  0.1300382    0.00000       Uiso       1.00
      C714          C  0.8396229  0.0934176  0.1080868    0.00000       Uiso       1.00
      C715          C  0.8354592  0.0848459  0.0903148    0.00000       Uiso       1.00
      C716          C  0.8139042  0.0750531  0.0938938    0.00000       Uiso       1.00
      C717          C  0.7965287  0.0731555  0.1160629    0.00000       Uiso       1.00
      C718          C  0.7999427  0.0794080  0.1343351    0.00000       Uiso       1.00
      O328          O  0.8465624  0.1131061  0.1467358    0.00000       Uiso       1.00
      H404          H  0.7805129  0.0680091  0.1190838    0.00000       Uiso       1.00
      C719          C  0.6518040  0.0020348  0.2007492    0.00000       Uiso       1.00
      C720          C  0.6736143  0.0145873  0.1969375    0.00000       Uiso       1.00
      C721          C  0.6779554  0.0212793  0.2145017    0.00000       Uiso       1.00
      C722          C  0.6998981  0.0345446  0.2103930    0.00000       Uiso       1.00
      C723          C  0.7179428  0.0426522  0.1888177    0.00000       Uiso       1.00
      C724          C  0.7131899  0.0360479  0.1714146    0.00000       Uiso       1.00
      C725          C  0.6915030  0.0207175  0.1747888    0.00000       Uiso       1.00
      O329          O  0.6325670  0.9954270  0.2214292    0.00000       Uiso       1.00
      H405          H  0.6642455  0.0159876  0.2313728    0.00000       Uiso       1.00
      H406          H  0.7025077  0.0384758  0.2242754    0.00000       Uiso       1.00
      H407          H  0.7262380  0.0438516  0.1553728    0.00000       Uiso       1.00
      C726          C  0.7732456  0.0252158  0.0266392    0.00000       Uiso       1.00
      C727          C  0.7552524  0.0197608  0.0484441    0.00000       Uiso       1.00
      C728          C  0.7333565  0.0045348  0.0527706    0.00000       Uiso       1.00
      C729          C  0.7155132  0.9999478  0.0747114    0.00000       Uiso       1.00
      C730          C  0.7190326  0.0115790  0.0927703    0.00000       Uiso       1.00
      C731          C  0.7411836  0.0271322  0.0880261    0.00000       Uiso       1.00
      C732          C  0.7594969  0.0301274  0.0663327    0.00000       Uiso       1.00
      O330          O  0.7717343  0.0170586  0.0074336    0.00000       Uiso       1.00
      H408          H  0.7302295  0.9960967  0.0390356    0.00000       Uiso       1.00
      H409          H  0.6990364  0.9873827  0.0772961    0.00000       Uiso       1.00
      H410          H  0.7442043  0.0379374  0.1010638    0.00000       Uiso       1.00
       B19          B  0.7953373  0.0287413  0.9904718    0.00000       Uiso       1.00
       B20          B  0.6156169  0.9835340  0.2147701    0.00000       Uiso       1.00
       B21          B  0.8398585  0.1181746  0.1703001    0.00000       Uiso       1.00
      H411          H  0.8351853  0.0705805  0.0184737    0.00000       Uiso       1.00
      H412          H  0.8431495  0.0864483  0.0488148    0.00000       Uiso       1.00
      H413          H  0.8565409  0.1016859  0.1046585    0.00000       Uiso       1.00
      H414          H  0.8493437  0.0862147  0.0738062    0.00000       Uiso       1.00
      C733          C  0.1178022  0.5218130  0.2125879    0.00000       Uiso       1.00
      C734          C  0.1211580  0.5390731  0.2043114    0.00000       Uiso       1.00
      C735          C  0.1102398  0.5347372  0.1933399    0.00000       Uiso       1.00
      C736          C  0.1146818  0.5522177  0.1842514    0.00000       Uiso       1.00
      C737          C  0.1311640  0.5742862  0.1847163    0.00000       Uiso       1.00
      C738          C  0.1421723  0.5782704  0.1955969    0.00000       Uiso       1.00
      C739          C  0.1362358  0.5613012  0.2069022    0.00000       Uiso       1.00
      O331          O  0.1041649  0.4992402  0.2108209    0.00000       Uiso       1.00
      H415          H  0.0981848  0.5177442  0.1919691    0.00000       Uiso       1.00
      H416          H  0.1052382  0.5482265  0.1767411    0.00000       Uiso       1.00
      H417          H  0.1563642  0.5944085  0.1941663    0.00000       Uiso       1.00
      C740          C  0.2205172  0.6828938  0.2570404    0.00000       Uiso       1.00
      C741          C  0.2066230  0.6607069  0.2536709    0.00000       Uiso       1.00
      C742          C  0.2000488  0.6431503  0.2645765    0.00000       Uiso       1.00
      C743          C  0.1870200  0.6210174  0.2601208    0.00000       Uiso       1.00
      C744          C  0.1814354  0.6158932  0.2436369    0.00000       Uiso       1.00
      C745          C  0.1884516  0.6338010  0.2326411    0.00000       Uiso       1.00
      C746          C  0.1994745  0.6561439  0.2385924    0.00000       Uiso       1.00
      O332          O  0.2294493  0.6900664  0.2706801    0.00000       Uiso       1.00
      H418          H  0.2049860  0.6467206  0.2766321    0.00000       Uiso       1.00
      H419          H  0.1815738  0.6080526  0.2695553    0.00000       Uiso       1.00
      H420          H  0.1865067  0.6304231  0.2184472    0.00000       Uiso       1.00
      C747          C  0.1621576  0.6689544  0.1543389    0.00000       Uiso       1.00
      C748          C  0.1704483  0.6738817  0.1682337    0.00000       Uiso       1.00
      C749          C  0.1814210  0.6957745  0.1748228    0.00000       Uiso       1.00
      C750          C  0.1905231  0.7004270  0.1878516    0.00000       Uiso       1.00
      C751          C  0.1900705  0.6834825  0.1934210    0.00000       Uiso       1.00
      C752          C  0.1791886  0.6615903  0.1863900    0.00000       Uiso       1.00
      C753          C  0.1678708  0.6562164  0.1753676    0.00000       Uiso       1.00
      O333          O  0.1639101  0.6843544  0.1454197    0.00000       Uiso       1.00
      H421          H  0.1827821  0.7091982  0.1698977    0.00000       Uiso       1.00
      H422          H  0.1980341  0.7173833  0.1933099    0.00000       Uiso       1.00
      H423          H  0.1806275  0.6488301  0.1883227    0.00000       Uiso       1.00
      C754          C  0.1517911  0.6474909  0.1474920    0.00000       Uiso       1.00
      C755          C  0.1478687  0.6294893  0.1552190    0.00000       Uiso       1.00
      C756          C  0.1368797  0.6075879  0.1486575    0.00000       Uiso       1.00
      C757          C  0.1321632  0.5897410  0.1574708    0.00000       Uiso       1.00
      C758          C  0.1370955  0.5932775  0.1740855    0.00000       Uiso       1.00
      C759          C  0.1479243  0.6154310  0.1806607    0.00000       Uiso       1.00
      C760          C  0.1549360  0.6337343  0.1702796    0.00000       Uiso       1.00
      O334          O  0.1453327  0.6460851  0.1333022    0.00000       Uiso       1.00
      H424          H  0.1320803  0.6044358  0.1365977    0.00000       Uiso       1.00
      H425          H  0.1244778  0.5732303  0.1512893    0.00000       Uiso       1.00
      H426          H  0.1497488  0.6184400  0.1948651    0.00000       Uiso       1.00
      C761          C  0.2273497  0.7001023  0.2459577    0.00000       Uiso       1.00
      C762          C  0.2196085  0.6962917  0.2318882    0.00000       Uiso       1.00
      C763          C  0.2261556  0.7138374  0.2209905    0.00000       Uiso       1.00
      C764          C  0.2173287  0.7097350  0.2078699    0.00000       Uiso       1.00
      C765          C  0.2007151  0.6881875  0.2064700    0.00000       Uiso       1.00
      C766          C  0.1941545  0.6707883  0.2177800    0.00000       Uiso       1.00
      C767          C  0.2045485  0.6741625  0.2290606    0.00000       Uiso       1.00
      O335          O  0.2415413  0.7207525  0.2510137    0.00000       Uiso       1.00
      H427          H  0.2382146  0.7306973  0.2226419    0.00000       Uiso       1.00
      H428          H  0.2234991  0.7235982  0.1990556    0.00000       Uiso       1.00
      H429          H  0.1799520  0.6547602  0.2189624    0.00000       Uiso       1.00
      C768          C  0.1288973  0.5260677  0.2229532    0.00000       Uiso       1.00
      C769          C  0.1429669  0.5478802  0.2268889    0.00000       Uiso       1.00
      C770          C  0.1538777  0.5522361  0.2378767    0.00000       Uiso       1.00
      C771          C  0.1669984  0.5741857  0.2426070    0.00000       Uiso       1.00
      C772          C  0.1683860  0.5921968  0.2376904    0.00000       Uiso       1.00
      C773          C  0.1570631  0.5874423  0.2268627    0.00000       Uiso       1.00
      C774          C  0.1457812  0.5657646  0.2198366    0.00000       Uiso       1.00
      O336          O  0.1238533  0.5068228  0.2293960    0.00000       Uiso       1.00
      H430          H  0.1522371  0.5385287  0.2426645    0.00000       Uiso       1.00
      H431          H  0.1758228  0.5768336  0.2502906    0.00000       Uiso       1.00
      H432          H  0.1558727  0.6004617  0.2250507    0.00000       Uiso       1.00
       B22          B  0.1081323  0.4898842  0.2215805    0.00000       Uiso       1.00
       B23          B  0.2427619  0.7141553  0.2667283    0.00000       Uiso       1.00
       B24          B  0.1531400  0.6696211  0.1320990    0.00000       Uiso       1.00
