data_21
_audit_creation_date              0000-00-00
_audit_creation_method            'LanYouShi'
_symmetry_space_group_name_H-M    'P1'
_cell_length_a                    62.4075012
_cell_length_b                    54.1212997
_cell_length_c                    54.1212997
_cell_angle_alpha                 70.5848007
_cell_angle_beta                  54.7916985
_cell_angle_gamma                 54.7509995
loop_
_atom_site_label
_atom_site_type_symbol
_atom_site_fract_x
_atom_site_fract_y
_atom_site_fract_z
_atom_site_U_iso_or_equiv
_atom_site_adp_type
_atom_site_occupancy
        C1          C  0.4999999  0.4999995  0.4999999    0.00000       Uiso       1.00
        C2          C  0.2602871  0.6844621  0.5970717    0.00000       Uiso       1.00
        C3          C  0.2711444  0.6530956  0.6032885    0.00000       Uiso       1.00
        C4          C  0.2501652  0.6427547  0.6234912    0.00000       Uiso       1.00
        C5          C  0.2187031  0.6635576  0.6376276    0.00000       Uiso       1.00
        C6          C  0.2078462  0.6949813  0.6316837    0.00000       Uiso       1.00
        C7          C  0.2288179  0.7053152  0.6113158    0.00000       Uiso       1.00
        H1          H  0.2759301  0.6930031  0.5812013    0.00000       Uiso       1.00
        H2          H  0.2209581  0.7294635  0.6062434    0.00000       Uiso       1.00
        H3          H  0.2581613  0.6185636  0.6283053    0.00000       Uiso       1.00
        H4          H  0.2029302  0.6550385  0.6532038    0.00000       Uiso       1.00
        C8          C  0.6253859  0.6032636  0.3470325    0.00000       Uiso       1.00
        C9          C  0.6424505  0.5970280  0.3156786    0.00000       Uiso       1.00
       C10          C  0.6261474  0.6234817  0.3573783    0.00000       Uiso       1.00
       C11          C  0.6434484  0.6376148  0.3365929    0.00000       Uiso       1.00
       C12          C  0.6602393  0.6316522  0.3051820    0.00000       Uiso       1.00
       C13          C  0.6596507  0.6112689  0.2948431    0.00000       Uiso       1.00
        H5          H  0.6426895  0.5811453  0.3071339    0.00000       Uiso       1.00
        H6          H  0.6725761  0.6061817  0.2707044    0.00000       Uiso       1.00
        H7          H  0.6133446  0.6283103  0.3815597    0.00000       Uiso       1.00
        H8          H  0.6436338  0.6532031  0.3451156    0.00000       Uiso       1.00
       C14          C  0.5276830  0.3469035  0.3967108    0.00000       Uiso       1.00
       C15          C  0.5420070  0.3155369  0.4029275    0.00000       Uiso       1.00
       C16          C  0.5165552  0.3572443  0.3765079    0.00000       Uiso       1.00
       C17          C  0.5200534  0.3364415  0.3623715    0.00000       Uiso       1.00
       C18          C  0.5347079  0.3050177  0.3683154    0.00000       Uiso       1.00
       C19          C  0.5456560  0.2946839  0.3886833    0.00000       Uiso       1.00
        H9          H  0.5503291  0.3069960  0.4187980    0.00000       Uiso       1.00
       H10          H  0.5568962  0.2705356  0.3937558    0.00000       Uiso       1.00
       H11          H  0.5051501  0.3814355  0.3716939    0.00000       Uiso       1.00
       H12          H  0.5113290  0.3449605  0.3467953    0.00000       Uiso       1.00
       C20          C  0.5757861  0.3967354  0.6529677    0.00000       Uiso       1.00
       C21          C  0.5552549  0.4029710  0.6843216    0.00000       Uiso       1.00
       C22          C  0.6071317  0.3765173  0.6426219    0.00000       Uiso       1.00
       C23          C  0.6177947  0.3623842  0.6634074    0.00000       Uiso       1.00
       C24          C  0.5972060  0.3683468  0.6948183    0.00000       Uiso       1.00
       C25          C  0.5658749  0.3887301  0.7051571    0.00000       Uiso       1.00
       H13          H  0.5310507  0.4188536  0.6928662    0.00000       Uiso       1.00
       H14          H  0.5495691  0.3938172  0.7292958    0.00000       Uiso       1.00
       H15          H  0.6233436  0.3716887  0.6184406    0.00000       Uiso       1.00
       H16          H  0.6421065  0.3467959  0.6548848    0.00000       Uiso       1.00
       C26          C  0.3564627  0.6126150  0.5428038    0.00000       Uiso       1.00
       C27          C  0.3687888  0.5872062  0.5588853    0.00000       Uiso       1.00
       C28          C  0.3493904  0.5832226  0.5893565    0.00000       Uiso       1.00
       C29          C  0.3179118  0.6046436  0.6035720    0.00000       Uiso       1.00
       C30          C  0.3050541  0.6303874  0.5878902    0.00000       Uiso       1.00
       C31          C  0.3249426  0.6339495  0.5572994    0.00000       Uiso       1.00
       H17          H  0.3158971  0.6530499  0.5444745    0.00000       Uiso       1.00
       H18          H  0.3035218  0.6013905  0.6270528    0.00000       Uiso       1.00
       C32          C  0.5722224  0.5588711  0.4128666    0.00000       Uiso       1.00
       C33          C  0.6006335  0.5427688  0.3874624    0.00000       Uiso       1.00
       C34          C  0.5611210  0.5893596  0.4168634    0.00000       Uiso       1.00
       C35          C  0.5783592  0.6035715  0.3954603    0.00000       Uiso       1.00
       C36          C  0.6069014  0.5878689  0.3697215    0.00000       Uiso       1.00
       C37          C  0.6176327  0.5572609  0.3661459    0.00000       Uiso       1.00
       H19          H  0.6395062  0.5444202  0.3470486    0.00000       Uiso       1.00
       H20          H  0.5692464  0.6270657  0.3987235    0.00000       Uiso       1.00
       C38          C  0.5149688  0.4127928  0.4411140    0.00000       Uiso       1.00
       C39          C  0.5119950  0.3873842  0.4571956    0.00000       Uiso       1.00
       C40          C  0.5220541  0.4167763  0.4106428    0.00000       Uiso       1.00
       C41          C  0.5262334  0.3953553  0.3964272    0.00000       Uiso       1.00
       C42          C  0.5234634  0.3696116  0.4121091    0.00000       Uiso       1.00
       C43          C  0.5163265  0.3660496  0.4427000    0.00000       Uiso       1.00
       H21          H  0.5135756  0.3469494  0.4555249    0.00000       Uiso       1.00
       H22          H  0.5320681  0.3986083  0.3729464    0.00000       Uiso       1.00
       C44          C  0.5440195  0.4411279  0.5871335    0.00000       Uiso       1.00
       C45          C  0.5309080  0.4572302  0.6125377    0.00000       Uiso       1.00
       C46          C  0.5674344  0.4106395  0.5831366    0.00000       Uiso       1.00
       C47          C  0.5774955  0.3964276  0.6045397    0.00000       Uiso       1.00
       C48          C  0.5645805  0.4121301  0.6302786    0.00000       Uiso       1.00
       C49          C  0.5410973  0.4427380  0.6338543    0.00000       Uiso       1.00
       H23          H  0.5310199  0.4555788  0.6529515    0.00000       Uiso       1.00
       H24          H  0.5951636  0.3729334  0.6012765    0.00000       Uiso       1.00
       C50          C  0.3760409  0.6160257  0.5123297    0.00000       Uiso       1.00
       C51          C  0.4072415  0.5947369  0.4980824    0.00000       Uiso       1.00
       C52          C  0.3619746  0.5576952  0.6050211    0.00000       Uiso       1.00
       C53          C  0.3931940  0.5365134  0.5907873    0.00000       Uiso       1.00
       C54          C  0.5247502  0.4423035  0.3949782    0.00000       Uiso       1.00
       C55          C  0.5205326  0.4634853  0.4092120    0.00000       Uiso       1.00
       C56          C  0.5804060  0.3949544  0.5576140    0.00000       Uiso       1.00
       C57          C  0.5703648  0.4091848  0.5364500    0.00000       Uiso       1.00
       C58          C  0.5078865  0.4877212  0.6159621    0.00000       Uiso       1.00
       C59          C  0.4979712  0.5019651  0.5946910    0.00000       Uiso       1.00
       H25          H  0.4974895  0.5006599  0.6351675    0.00000       Uiso       1.00
       H26          H  0.4801827  0.5254595  0.5981325    0.00000       Uiso       1.00
       H27          H  0.5984340  0.3715612  0.5539563    0.00000       Uiso       1.00
       H28          H  0.5808960  0.3963411  0.5171123    0.00000       Uiso       1.00
       H29          H  0.4020264  0.5171725  0.6036149    0.00000       Uiso       1.00
       H30          H  0.3476199  0.5540475  0.6284007    0.00000       Uiso       1.00
       H31          H  0.4215732  0.5981683  0.4746014    0.00000       Uiso       1.00
       H32          H  0.3672067  0.6352342  0.4994071    0.00000       Uiso       1.00
       H33          H  0.5228325  0.4828261  0.3963844    0.00000       Uiso       1.00
       H34          H  0.5301238  0.4459512  0.3715984    0.00000       Uiso       1.00
       C60          C  0.4513767  0.5481058  0.4998039    0.00000       Uiso       1.00
       C61          C  0.4647367  0.5233193  0.5159163    0.00000       Uiso       1.00
       C62          C  0.4443868  0.5191584  0.5460963    0.00000       Uiso       1.00
       C63          C  0.4128229  0.5402772  0.5604932    0.00000       Uiso       1.00
       C64          C  0.4005516  0.5656998  0.5444528    0.00000       Uiso       1.00
       C65          C  0.4198712  0.5694803  0.5139185    0.00000       Uiso       1.00
       H35          H  0.4656899  0.5510104  0.4761642    0.00000       Uiso       1.00
       H36          H  0.4531183  0.4994088  0.5585963    0.00000       Uiso       1.00
       C66          C  0.5193189  0.5159123  0.4766998    0.00000       Uiso       1.00
       C67          C  0.5487950  0.4997794  0.4519177    0.00000       Uiso       1.00
       C68          C  0.5094606  0.5461096  0.4808736    0.00000       Uiso       1.00
       C69          C  0.5266023  0.5605032  0.4597727    0.00000       Uiso       1.00
       C70          C  0.5549176  0.5444420  0.4343550    0.00000       Uiso       1.00
       C71          C  0.5661609  0.5138904  0.4305610    0.00000       Uiso       1.00
       H37          H  0.5581437  0.4761264  0.4490027    0.00000       Uiso       1.00
       H38          H  0.4882265  0.5586257  0.5006195    0.00000       Uiso       1.00
       C72          C  0.5039964  0.4766797  0.4840833    0.00000       Uiso       1.00
       C73          C  0.4993352  0.4518934  0.5001957    0.00000       Uiso       1.00
       C74          C  0.5096617  0.4808404  0.4539031    0.00000       Uiso       1.00
       C75          C  0.5136349  0.4597217  0.4395062    0.00000       Uiso       1.00
       C76          C  0.5107708  0.4342993  0.4555467    0.00000       Uiso       1.00
       C77          C  0.5033402  0.4305189  0.4860811    0.00000       Uiso       1.00
       H39          H  0.4929161  0.4489889  0.5238355    0.00000       Uiso       1.00
       H40          H  0.5111239  0.5005900  0.4414032    0.00000       Uiso       1.00
       C78          C  0.5119475  0.4840867  0.5233001    0.00000       Uiso       1.00
       C79          C  0.5004923  0.5002196  0.5480822    0.00000       Uiso       1.00
       C80          C  0.5364907  0.4538894  0.5191261    0.00000       Uiso       1.00
       C81          C  0.5469397  0.4394958  0.5402271    0.00000       Uiso       1.00
       C82          C  0.5337596  0.4555570  0.5656450    0.00000       Uiso       1.00
       C83          C  0.5106269  0.4861085  0.5694389    0.00000       Uiso       1.00
       H41          H  0.4832493  0.5238726  0.5509973    0.00000       Uiso       1.00
       H42          H  0.5475312  0.4413733  0.4993802    0.00000       Uiso       1.00
       C84          C  0.5946299  0.4980338  0.4053091    0.00000       Uiso       1.00
       C85          C  0.6115581  0.5122777  0.3840381    0.00000       Uiso       1.00
       C86          C  0.5159088  0.5908144  0.4635498    0.00000       Uiso       1.00
       C87          C  0.5328695  0.6050447  0.4423858    0.00000       Uiso       1.00
       C88          C  0.5001562  0.4052624  0.5019172    0.00000       Uiso       1.00
       C89          C  0.5045131  0.3839736  0.4876698    0.00000       Uiso       1.00
       H43          H  0.6333182  0.4993390  0.3648327    0.00000       Uiso       1.00
       H44          H  0.6038011  0.4745393  0.4018677    0.00000       Uiso       1.00
       H45          H  0.4942457  0.6036581  0.4828874    0.00000       Uiso       1.00
       H46          H  0.5238229  0.6284379  0.4460435    0.00000       Uiso       1.00
       H47          H  0.4944415  0.4018311  0.5253983    0.00000       Uiso       1.00
       H48          H  0.5019840  0.3647651  0.5005924    0.00000       Uiso       1.00
       C90          C  0.7506515  0.8754394  0.3746723    0.00000       Uiso       1.00
       C91          C  0.6076762  0.1148811  0.3330677    0.00000       Uiso       1.00
       C92          C  0.6248148  0.1040511  0.3473196    0.00000       Uiso       1.00
       C93          C  0.6240665  0.1250224  0.3584203    0.00000       Uiso       1.00
       C94          C  0.6067045  0.1564506  0.3549669    0.00000       Uiso       1.00
       C95          C  0.5898387  0.1672810  0.3403849    0.00000       Uiso       1.00
       C96          C  0.5904146  0.1463167  0.3294637    0.00000       Uiso       1.00
       H49          H  0.6074265  0.0992424  0.3247675    0.00000       Uiso       1.00
       H50          H  0.5774325  0.1541560  0.3182790    0.00000       Uiso       1.00
       H51          H  0.6369268  0.1170464  0.3697698    0.00000       Uiso       1.00
       H52          H  0.6065305  0.1722182  0.3636693    0.00000       Uiso       1.00
       C97          C  0.7228270  0.7500389  0.2991379    0.00000       Uiso       1.00
       C98          C  0.7085693  0.7329330  0.3196458    0.00000       Uiso       1.00
       C99          C  0.7338688  0.7493183  0.2678500    0.00000       Uiso       1.00
      C100          C  0.7303508  0.7320161  0.2572216    0.00000       Uiso       1.00
      C101          C  0.7157623  0.7151831  0.2777874    0.00000       Uiso       1.00
      C102          C  0.7049004  0.7157313  0.3090607    0.00000       Uiso       1.00
       H53          H  0.7003146  0.7326631  0.3438049    0.00000       Uiso       1.00
       H54          H  0.6937124  0.7027736  0.3253476    0.00000       Uiso       1.00
       H55          H  0.7452224  0.7621539  0.2516562    0.00000       Uiso       1.00
       H56          H  0.7390084  0.7318625  0.2329542    0.00000       Uiso       1.00
      C103          C  0.6755313  0.8474699  0.6030955    0.00000       Uiso       1.00
      C104          C  0.6961330  0.8331823  0.6138825    0.00000       Uiso       1.00
      C105          C  0.6442071  0.8585207  0.6240855    0.00000       Uiso       1.00
      C106          C  0.6336352  0.8549827  0.6554887    0.00000       Uiso       1.00
      C107          C  0.6542944  0.8403648  0.6662751    0.00000       Uiso       1.00
      C108          C  0.6856042  0.8294935  0.6452926    0.00000       Uiso       1.00
       H57          H  0.7203220  0.8249193  0.5982297    0.00000       Uiso       1.00
       H58          H  0.7019632  0.8182827  0.6530985    0.00000       Uiso       1.00
       H59          H  0.6279413  0.8698969  0.6161434    0.00000       Uiso       1.00
       H60          H  0.6093381  0.8636478  0.6712712    0.00000       Uiso       1.00
      C109          C  0.9794330  0.8001984  0.2491362    0.00000       Uiso       1.00
      C110          C  0.9902277  0.8207617  0.2320932    0.00000       Uiso       1.00
      C111          C  0.0004643  0.7688968  0.2483335    0.00000       Uiso       1.00
      C112          C  0.0319163  0.7583089  0.2310120    0.00000       Uiso       1.00
      C113          C  0.0427113  0.7789294  0.2142418    0.00000       Uiso       1.00
      C114          C  0.0216876  0.8102168  0.2148723    0.00000       Uiso       1.00
       H61          H  0.9745430  0.8449336  0.2318871    0.00000       Uiso       1.00
       H62          H  0.0294988  0.8265461  0.2019641    0.00000       Uiso       1.00
       H63          H  0.9925156  0.7526610  0.2611198    0.00000       Uiso       1.00
       H64          H  0.0477298  0.7340298  0.2307945    0.00000       Uiso       1.00
      C115          C  0.6497287  0.0187753  0.3629157    0.00000       Uiso       1.00
      C116          C  0.6781730  0.0065097  0.3598913    0.00000       Uiso       1.00
      C117          C  0.6892444  0.0259352  0.3528015    0.00000       Uiso       1.00
      C118          C  0.6719432  0.0573804  0.3486686    0.00000       Uiso       1.00
      C119          C  0.6433663  0.0701774  0.3514901    0.00000       Uiso       1.00
      C120          C  0.6326661  0.0502626  0.3586306    0.00000       Uiso       1.00
       H65          H  0.6107688  0.0592612  0.3614194    0.00000       Uiso       1.00
       H66          H  0.6810330  0.0717925  0.3428302    0.00000       Uiso       1.00
      C121          C  0.7356012  0.8032109  0.3307965    0.00000       Uiso       1.00
      C122          C  0.7386475  0.7747986  0.3438682    0.00000       Uiso       1.00
      C123          C  0.7284238  0.8143107  0.3074568    0.00000       Uiso       1.00
      C124          C  0.7242257  0.7970695  0.2974300    0.00000       Uiso       1.00
      C125          C  0.7270675  0.7685258  0.3103060    0.00000       Uiso       1.00
      C126          C  0.7342964  0.7577961  0.3337139    0.00000       Uiso       1.00
       H67          H  0.7371036  0.7359226  0.3437597    0.00000       Uiso       1.00
       H68          H  0.7183203  0.8061803  0.2798194    0.00000       Uiso       1.00
      C127          C  0.7070122  0.8603051  0.5056367    0.00000       Uiso       1.00
      C128          C  0.7201732  0.8632991  0.5179041    0.00000       Uiso       1.00
      C129          C  0.6836409  0.8531603  0.5250335    0.00000       Uiso       1.00
      C130          C  0.6736720  0.8489423  0.5564519    0.00000       Uiso       1.00
      C131          C  0.6866381  0.8517318  0.5692499    0.00000       Uiso       1.00
      C132          C  0.7100763  0.8589287  0.5493641    0.00000       Uiso       1.00
       H69          H  0.7201899  0.8616953  0.5583656    0.00000       Uiso       1.00
       H70          H  0.6560362  0.8430628  0.5708413    0.00000       Uiso       1.00
      C133          C  0.8818197  0.8317325  0.3023647    0.00000       Uiso       1.00
      C134          C  0.8940566  0.8448858  0.2740014    0.00000       Uiso       1.00
      C135          C  0.9012972  0.8083518  0.3133973    0.00000       Uiso       1.00
      C136          C  0.9327654  0.7983655  0.2961385    0.00000       Uiso       1.00
      C137          C  0.9455340  0.8113233  0.2676432    0.00000       Uiso       1.00
      C138          C  0.9255670  0.8347713  0.2569808    0.00000       Uiso       1.00
       H71          H  0.9345433  0.8448799  0.2351449    0.00000       Uiso       1.00
       H72          H  0.9472170  0.7807220  0.3051982    0.00000       Uiso       1.00
      C139          C  0.6388359  0.9991696  0.3704007    0.00000       Uiso       1.00
      C140          C  0.6558272  0.9680017  0.3747114    0.00000       Uiso       1.00
      C141          C  0.7175304  0.0134110  0.3500543    0.00000       Uiso       1.00
      C142          C  0.7345540  0.9822239  0.3542260    0.00000       Uiso       1.00
      C143          C  0.6706188  0.8504444  0.5125083    0.00000       Uiso       1.00
      C144          C  0.6805683  0.8547004  0.4813486    0.00000       Uiso       1.00
      C145          C  0.8888013  0.7953380  0.3416022    0.00000       Uiso       1.00
      C146          C  0.8575920  0.8053049  0.3585837    0.00000       Uiso       1.00
      C147          C  0.8744000  0.8678727  0.2631453    0.00000       Uiso       1.00
      C148          C  0.8432094  0.8777139  0.2800944    0.00000       Uiso       1.00
       H73          H  0.8831648  0.8783004  0.2414230    0.00000       Uiso       1.00
       H74          H  0.8288157  0.8954779  0.2709765    0.00000       Uiso       1.00
       H75          H  0.9032179  0.7773347  0.3505957    0.00000       Uiso       1.00
       H76          H  0.8488289  0.7947431  0.3802091    0.00000       Uiso       1.00
       H77          H  0.7562418  0.9734378  0.3518875    0.00000       Uiso       1.00
       H78          H  0.7265552  0.0277876  0.3446760    0.00000       Uiso       1.00
       H79          H  0.6466785  0.9536479  0.3804301    0.00000       Uiso       1.00
       H80          H  0.6170512  0.0079579  0.3729681    0.00000       Uiso       1.00
       H81          H  0.6700007  0.8523839  0.4725607    0.00000       Uiso       1.00
       H82          H  0.6526223  0.8450253  0.5268634    0.00000       Uiso       1.00
      C149          C  0.7017578  0.9239610  0.3754359    0.00000       Uiso       1.00
      C150          C  0.7312641  0.9106647  0.3707260    0.00000       Uiso       1.00
      C151          C  0.7410946  0.9310384  0.3650553    0.00000       Uiso       1.00
      C152          C  0.7238904  0.9625689  0.3611278    0.00000       Uiso       1.00
      C153          C  0.6955417  0.9747799  0.3640426    0.00000       Uiso       1.00
      C154          C  0.6843292  0.9554328  0.3714770    0.00000       Uiso       1.00
       H83          H  0.6924337  0.9096249  0.3818575    0.00000       Uiso       1.00
       H84          H  0.7623554  0.9223518  0.3635532    0.00000       Uiso       1.00
      C155          C  0.7466328  0.8561189  0.3627636    0.00000       Uiso       1.00
      C156          C  0.7513643  0.8266460  0.3741795    0.00000       Uiso       1.00
      C157          C  0.7408746  0.8659794  0.3382953    0.00000       Uiso       1.00
      C158          C  0.7368817  0.8488352  0.3278813    0.00000       Uiso       1.00
      C159          C  0.7398184  0.8205186  0.3410215    0.00000       Uiso       1.00
      C160          C  0.7473406  0.8092775  0.3640793    0.00000       Uiso       1.00
       H85          H  0.7578537  0.8173008  0.3913648    0.00000       Uiso       1.00
       H86          H  0.7393550  0.8872166  0.3272862    0.00000       Uiso       1.00
      C161          C  0.7388061  0.8713982  0.4098694    0.00000       Uiso       1.00
      C162          C  0.7503104  0.8760756  0.4231715    0.00000       Uiso       1.00
      C163          C  0.7143065  0.8656705  0.4302177    0.00000       Uiso       1.00
      C164          C  0.7039496  0.8616579  0.4617218    0.00000       Uiso       1.00
      C165          C  0.7171791  0.8645422  0.4739344    0.00000       Uiso       1.00
      C166          C  0.7402681  0.8720317  0.4546168    0.00000       Uiso       1.00
       H87          H  0.7675202  0.8825385  0.4088595    0.00000       Uiso       1.00
       H88          H  0.7032283  0.8641905  0.4215314    0.00000       Uiso       1.00
      C167          C  0.7859037  0.8635758  0.3553302    0.00000       Uiso       1.00
      C168          C  0.7991737  0.8750753  0.3259024    0.00000       Uiso       1.00
      C169          C  0.8063309  0.8390692  0.3651211    0.00000       Uiso       1.00
      C170          C  0.8378849  0.8286954  0.3479582    0.00000       Uiso       1.00
      C171          C  0.8500672  0.8419169  0.3196906    0.00000       Uiso       1.00
      C172          C  0.8306684  0.8650160  0.3085161    0.00000       Uiso       1.00
       H89          H  0.7847986  0.8922940  0.3166073    0.00000       Uiso       1.00
       H90          H  0.7976679  0.8279986  0.3863185    0.00000       Uiso       1.00
      C173          C  0.7505960  0.7808080  0.3766956    0.00000       Uiso       1.00
      C174          C  0.7462203  0.7638764  0.3668148    0.00000       Uiso       1.00
      C175          C  0.7298926  0.8595277  0.3045308    0.00000       Uiso       1.00
      C176          C  0.7256560  0.8425640  0.2945241    0.00000       Uiso       1.00
      C177          C  0.7529734  0.8752348  0.4671879    0.00000       Uiso       1.00
      C178          C  0.7431498  0.8708397  0.4983288    0.00000       Uiso       1.00
       H91          H  0.7488065  0.7421156  0.3771798    0.00000       Uiso       1.00
       H92          H  0.7563818  0.7716386  0.3944264    0.00000       Uiso       1.00
       H93          H  0.7275356  0.8811920  0.2940316    0.00000       Uiso       1.00
       H94          H  0.7202111  0.8516096  0.2765537    0.00000       Uiso       1.00
       H95          H  0.7707298  0.8809945  0.4528565    0.00000       Uiso       1.00
       H96          H  0.7535830  0.8733854  0.5071189    0.00000       Uiso       1.00
      C179          C  0.8748489  0.6253308  0.8745615    0.00000       Uiso       1.00
      C180          C  0.6898348  0.7679543  0.8199824    0.00000       Uiso       1.00
      C181          C  0.7212203  0.7508926  0.7994208    0.00000       Uiso       1.00
      C182          C  0.7315060  0.7516800  0.7681354    0.00000       Uiso       1.00
      C183          C  0.7106301  0.7690050  0.7575613    0.00000       Uiso       1.00
      C184          C  0.6791873  0.7857939  0.7781798    0.00000       Uiso       1.00
      C185          C  0.6689085  0.7851787  0.8094513    0.00000       Uiso       1.00
       H97          H  0.6813353  0.7681727  0.8441423    0.00000       Uiso       1.00
       H98          H  0.6447469  0.7981017  0.8257788    0.00000       Uiso       1.00
       H99          H  0.7557110  0.7388791  0.7519013    0.00000       Uiso       1.00
      H100          H  0.7191074  0.7692105  0.7332945    0.00000       Uiso       1.00
      C186          C  0.7719320  0.6528118  0.1030721    0.00000       Uiso       1.00
      C187          C  0.7782210  0.6670763  0.1139038    0.00000       Uiso       1.00
      C188          C  0.7517096  0.6417162  0.1240273    0.00000       Uiso       1.00
      C189          C  0.7376242  0.6451870  0.1554415    0.00000       Uiso       1.00
      C190          C  0.7436396  0.6597818  0.1662737    0.00000       Uiso       1.00
      C191          C  0.7640276  0.6706979  0.1453254    0.00000       Uiso       1.00
      H101          H  0.7941089  0.6753728  0.0982771    0.00000       Uiso       1.00
      H102          H  0.7691553  0.6818920  0.1531665    0.00000       Uiso       1.00
      H103          H  0.7468407  0.6303570  0.1160496    0.00000       Uiso       1.00
      H104          H  0.7220315  0.6364881  0.1711968    0.00000       Uiso       1.00
      C192          C  0.0280619  0.7008401  0.7492620    0.00000       Uiso       1.00
      C193          C  0.0594544  0.6803132  0.7321546    0.00000       Uiso       1.00
      C194          C  0.0177096  0.7321433  0.7485574    0.00000       Uiso       1.00
      C195          C  0.0385278  0.7427682  0.7312692    0.00000       Uiso       1.00
      C196          C  0.0699784  0.7221836  0.7144344    0.00000       Uiso       1.00
      C197          C  0.0803232  0.6908950  0.7149668    0.00000       Uiso       1.00
      H105          H  0.0680036  0.6561419  0.7318726    0.00000       Uiso       1.00
      H106          H  0.1044918  0.6745934  0.7020074    0.00000       Uiso       1.00
      H107          H  0.9934970  0.7483517  0.7613947    0.00000       Uiso       1.00
      H108          H  0.0299996  0.7670478  0.7311280    0.00000       Uiso       1.00
      C198          C  0.9781820  0.3967790  0.8464917    0.00000       Uiso       1.00
      C199          C  0.9718859  0.3859795  0.8322059    0.00000       Uiso       1.00
      C200          C  0.9984708  0.3757840  0.8575265    0.00000       Uiso       1.00
      C201          C  0.0126147  0.3443633  0.8539746    0.00000       Uiso       1.00
      C202          C  0.0065915  0.3335642  0.8393586    0.00000       Uiso       1.00
      C203          C  0.9861369  0.3545518  0.8285032    0.00000       Uiso       1.00
      H109          H  0.9559482  0.4016360  0.8239548    0.00000       Uiso       1.00
      H110          H  0.9810021  0.3467364  0.8172940    0.00000       Uiso       1.00
      H111          H  0.0033475  0.3837357  0.8689010    0.00000       Uiso       1.00
      H112          H  0.0282581  0.3285771  0.8626275    0.00000       Uiso       1.00
      C204          C  0.7619120  0.7260373  0.8440734    0.00000       Uiso       1.00
      C205          C  0.7873371  0.6976530  0.8309126    0.00000       Uiso       1.00
      C206          C  0.7912631  0.6866031  0.8075381    0.00000       Uiso       1.00
      C207          C  0.7697688  0.7038656  0.7975655    0.00000       Uiso       1.00
      C208          C  0.7440073  0.7323818  0.8105309    0.00000       Uiso       1.00
      C209          C  0.7405040  0.7430614  0.8339724    0.00000       Uiso       1.00
      H113          H  0.7213923  0.7649134  0.8440867    0.00000       Uiso       1.00
      H114          H  0.7729786  0.6947926  0.7799264    0.00000       Uiso       1.00
      C210          C  0.8161768  0.6401851  0.0055733    0.00000       Uiso       1.00
      C211          C  0.8323525  0.6371652  0.0178313    0.00000       Uiso       1.00
      C212          C  0.7856630  0.6472882  0.0249925    0.00000       Uiso       1.00
      C213          C  0.7714991  0.6514389  0.0564241    0.00000       Uiso       1.00
      C214          C  0.7872754  0.6486223  0.0692132    0.00000       Uiso       1.00
      C215          C  0.8179076  0.6414684  0.0493049    0.00000       Uiso       1.00
      H115          H  0.8308047  0.6386827  0.0582976    0.00000       Uiso       1.00
      H116          H  0.7479842  0.6572874  0.0708318    0.00000       Uiso       1.00
      C216          C  0.9621202  0.6691922  0.8023914    0.00000       Uiso       1.00
      C217          C  0.9875134  0.6561000  0.7739866    0.00000       Uiso       1.00
      C218          C  0.9581688  0.6925490  0.8134975    0.00000       Uiso       1.00
      C219          C  0.9796065  0.7025721  0.7962701    0.00000       Uiso       1.00
      C220          C  0.0053362  0.6896756  0.7677341    0.00000       Uiso       1.00
      C221          C  0.0088659  0.6662508  0.7569979    0.00000       Uiso       1.00
      H117          H  0.0279531  0.6561892  0.7351302    0.00000       Uiso       1.00
      H118          H  0.9763791  0.7201960  0.8053851    0.00000       Uiso       1.00
      C222          C  0.9337615  0.4942932  0.8593693    0.00000       Uiso       1.00
      C223          C  0.9176176  0.4820212  0.8623551    0.00000       Uiso       1.00
      C224          C  0.9643007  0.4748830  0.8522188    0.00000       Uiso       1.00
      C225          C  0.9785210  0.4434466  0.8479872    0.00000       Uiso       1.00
      C226          C  0.9627771  0.4306437  0.8507684    0.00000       Uiso       1.00
      C227          C  0.9321186  0.4505432  0.8579711    0.00000       Uiso       1.00
      H119          H  0.9192461  0.4415387  0.8607317    0.00000       Uiso       1.00
      H120          H  0.0020544  0.4290470  0.8421037    0.00000       Uiso       1.00
      C228          C  0.7585593  0.7369103  0.8670541    0.00000       Uiso       1.00
      C229          C  0.7799208  0.7199576  0.8768818    0.00000       Uiso       1.00
      C230          C  0.8168073  0.6583775  0.7945169    0.00000       Uiso       1.00
      C231          C  0.8380619  0.6413925  0.8044703    0.00000       Uiso       1.00
      C232          C  0.9326562  0.7055021  0.8417432    0.00000       Uiso       1.00
      C233          C  0.9114576  0.6954989  0.8586934    0.00000       Uiso       1.00
      C234          C  0.9800273  0.4874129  0.8495110    0.00000       Uiso       1.00
      C235          C  0.9657882  0.5185904  0.8537805    0.00000       Uiso       1.00
      C236          C  0.8870769  0.5016102  0.8699013    0.00000       Uiso       1.00
      C237          C  0.8728248  0.5327688  0.8743098    0.00000       Uiso       1.00
      H121          H  0.8741059  0.4928171  0.8724410    0.00000       Uiso       1.00
      H122          H  0.8492916  0.5471104  0.8800734    0.00000       Uiso       1.00
      H123          H  0.0034604  0.4730479  0.8440878    0.00000       Uiso       1.00
      H124          H  0.9786648  0.5273815  0.8514698    0.00000       Uiso       1.00
      H125          H  0.8574137  0.6197507  0.7939031    0.00000       Uiso       1.00
      H126          H  0.8204120  0.6493704  0.7765182    0.00000       Uiso       1.00
      H127          H  0.7765325  0.7290890  0.8946413    0.00000       Uiso       1.00
      H128          H  0.7393399  0.7586489  0.8774872    0.00000       Uiso       1.00
      H129          H  0.8921289  0.7060142  0.8803521    0.00000       Uiso       1.00
      H130          H  0.9290331  0.7234858  0.8507934    0.00000       Uiso       1.00
      C238          C  0.8266422  0.6741251  0.8742219    0.00000       Uiso       1.00
      C239          C  0.8514470  0.6446767  0.8627135    0.00000       Uiso       1.00
      C240          C  0.8555485  0.6348687  0.8382143    0.00000       Uiso       1.00
      C241          C  0.8343561  0.6520351  0.8278543    0.00000       Uiso       1.00
      C242          C  0.8089175  0.6803234  0.8410833    0.00000       Uiso       1.00
      C243          C  0.8051945  0.6915152  0.8641762    0.00000       Uiso       1.00
      H131          H  0.8237807  0.6834335  0.8914366    0.00000       Uiso       1.00
      H132          H  0.8753090  0.6136551  0.8271385    0.00000       Uiso       1.00
      C244          C  0.8589894  0.6292967  0.9097713    0.00000       Uiso       1.00
      C245          C  0.8751975  0.6245910  0.9230586    0.00000       Uiso       1.00
      C246          C  0.8287694  0.6349806  0.9301374    0.00000       Uiso       1.00
      C247          C  0.8144233  0.6389257  0.9616541    0.00000       Uiso       1.00
      C248          C  0.8305578  0.6360154  0.9738576    0.00000       Uiso       1.00
      C249          C  0.8611346  0.6285675  0.9545165    0.00000       Uiso       1.00
      H133          H  0.8988715  0.6181588  0.9087264    0.00000       Uiso       1.00
      H134          H  0.8161980  0.6364791  0.9214559    0.00000       Uiso       1.00
      C250          C  0.8981860  0.6372357  0.8552568    0.00000       Uiso       1.00
      C251          C  0.9229535  0.6257995  0.8257929    0.00000       Uiso       1.00
      C252          C  0.8940543  0.6617211  0.8651246    0.00000       Uiso       1.00
      C253          C  0.9151896  0.6721315  0.8479944    0.00000       Uiso       1.00
      C254          C  0.9405968  0.6589708  0.8196853    0.00000       Uiso       1.00
      C255          C  0.9443443  0.6358960  0.8084382    0.00000       Uiso       1.00
      H135          H  0.9258312  0.6086009  0.8164437    0.00000       Uiso       1.00
      H136          H  0.8743151  0.6727462  0.8863568    0.00000       Uiso       1.00
      C256          C  0.8907730  0.5901140  0.8705047    0.00000       Uiso       1.00
      C257          C  0.8746023  0.5768077  0.8751727    0.00000       Uiso       1.00
      C258          C  0.9210234  0.5697526  0.8647701    0.00000       Uiso       1.00
      C259          C  0.9354265  0.5382306  0.8607438    0.00000       Uiso       1.00
      C260          C  0.9193236  0.5260134  0.8636202    0.00000       Uiso       1.00
      C261          C  0.8887221  0.5453445  0.8711151    0.00000       Uiso       1.00
      H137          H  0.8509120  0.5911301  0.8816394    0.00000       Uiso       1.00
      H138          H  0.9335737  0.5784425  0.8632953    0.00000       Uiso       1.00
      C262          C  0.8770646  0.6253378  0.9670775    0.00000       Uiso       1.00
      C263          C  0.8628680  0.6296664  0.9982319    0.00000       Uiso       1.00
      C264          C  0.7840879  0.6458409  0.9813027    0.00000       Uiso       1.00
      C265          C  0.7699048  0.6500305  0.0124760    0.00000       Uiso       1.00
      C266          C  0.9695851  0.6232592  0.7799765    0.00000       Uiso       1.00
      C267          C  0.9908911  0.6331366  0.7630583    0.00000       Uiso       1.00
      H139          H  0.8758627  0.6271025  0.0070143    0.00000       Uiso       1.00
      H140          H  0.9005800  0.6196091  0.9527280    0.00000       Uiso       1.00
      H141          H  0.7711883  0.6481762  0.9725221    0.00000       Uiso       1.00
      H142          H  0.7464908  0.6554187  0.0268480    0.00000       Uiso       1.00
      H143          H  0.9729911  0.6055151  0.7708027    0.00000       Uiso       1.00
      H144          H  0.0100875  0.6227557  0.7413031    0.00000       Uiso       1.00
      C268          C  0.0011407  0.1245595  0.6253292    0.00000       Uiso       1.00
      C269          C  0.0562430  0.8851178  0.6669336    0.00000       Uiso       1.00
      C270          C  0.0767926  0.8959478  0.6526818    0.00000       Uiso       1.00
      C271          C  0.1081373  0.8749765  0.6415812    0.00000       Uiso       1.00
      C272          C  0.1187817  0.8435483  0.6450345    0.00000       Uiso       1.00
      C273          C  0.0981750  0.8327180  0.6596165    0.00000       Uiso       1.00
      C274          C  0.0668444  0.8536822  0.6705377    0.00000       Uiso       1.00
      H145          H  0.0320386  0.9007565  0.6752338    0.00000       Uiso       1.00
      H146          H  0.0505248  0.8458429  0.6817222    0.00000       Uiso       1.00
      H147          H  0.1243630  0.8829525  0.6302317    0.00000       Uiso       1.00
      H148          H  0.1430934  0.8277807  0.6363322    0.00000       Uiso       1.00
      C275          C  0.7722548  0.2499600  0.7008631    0.00000       Uiso       1.00
      C276          C  0.7613822  0.2670659  0.6803551    0.00000       Uiso       1.00
      C277          C  0.7512875  0.2506806  0.7321509    0.00000       Uiso       1.00
      C278          C  0.7198216  0.2679829  0.7427791    0.00000       Uiso       1.00
      C279          C  0.7089490  0.2848158  0.7222133    0.00000       Uiso       1.00
      C280          C  0.7299091  0.2842676  0.6909401    0.00000       Uiso       1.00
      H149          H  0.7770162  0.2673359  0.6561960    0.00000       Uiso       1.00
      H150          H  0.7220372  0.2972254  0.6746531    0.00000       Uiso       1.00
      H151          H  0.7592958  0.2378450  0.7483447    0.00000       Uiso       1.00
      H152          H  0.7040579  0.2681364  0.7670465    0.00000       Uiso       1.00
      C281          C  0.1264458  0.1525290  0.3969061    0.00000       Uiso       1.00
      C282          C  0.1435324  0.1668166  0.3861193    0.00000       Uiso       1.00
      C283          C  0.1271736  0.1414782  0.3759161    0.00000       Uiso       1.00
      C284          C  0.1444632  0.1450162  0.3445129    0.00000       Uiso       1.00
      C285          C  0.1612763  0.1596341  0.3337266    0.00000       Uiso       1.00
      C286          C  0.1607213  0.1705054  0.3547092    0.00000       Uiso       1.00
      H153          H  0.1437975  0.1750796  0.4017720    0.00000       Uiso       1.00
      H154          H  0.1736641  0.1817162  0.3469033    0.00000       Uiso       1.00
      H155          H  0.1143534  0.1301020  0.3838581    0.00000       Uiso       1.00
      H156          H  0.1446226  0.1363511  0.3287303    0.00000       Uiso       1.00
      C287          C  0.0290692  0.1998004  0.7508659    0.00000       Uiso       1.00
      C288          C  0.0434048  0.1792371  0.7679090    0.00000       Uiso       1.00
      C289          C  0.0179641  0.2311020  0.7516686    0.00000       Uiso       1.00
      C290          C  0.0214959  0.2416900  0.7689902    0.00000       Uiso       1.00
      C291          C  0.0361619  0.2210694  0.7857605    0.00000       Uiso       1.00
      C292          C  0.0470876  0.1897820  0.7851300    0.00000       Uiso       1.00
      H157          H  0.0517101  0.1550652  0.7681151    0.00000       Uiso       1.00
      H158          H  0.0583362  0.1734527  0.7980382    0.00000       Uiso       1.00
      H159          H  0.0065502  0.2473378  0.7388823    0.00000       Uiso       1.00
      H160          H  0.0127884  0.2659691  0.7692078    0.00000       Uiso       1.00
      C293          C  0.0319412  0.9812236  0.6370856    0.00000       Uiso       1.00
      C294          C  0.0450832  0.9934891  0.6401101    0.00000       Uiso       1.00
      C295          C  0.0685097  0.9740637  0.6472000    0.00000       Uiso       1.00
      C296          C  0.0785523  0.9426185  0.6513329    0.00000       Uiso       1.00
      C297          C  0.0656068  0.9298216  0.6485113    0.00000       Uiso       1.00
      C298          C  0.0421123  0.9497363  0.6413708    0.00000       Uiso       1.00
      H161          H  0.0320114  0.9407377  0.6385819    0.00000       Uiso       1.00
      H162          H  0.0962303  0.9282064  0.6571714    0.00000       Uiso       1.00
      C299          C  0.8699129  0.1967881  0.6692047    0.00000       Uiso       1.00
      C300          C  0.8575899  0.2252004  0.6561330    0.00000       Uiso       1.00
      C301          C  0.8505068  0.1856882  0.6925443    0.00000       Uiso       1.00
      C302          C  0.8190236  0.2029293  0.7025710    0.00000       Uiso       1.00
      C303          C  0.8061689  0.2314731  0.6896950    0.00000       Uiso       1.00
      C304          C  0.8260652  0.2422028  0.6662871    0.00000       Uiso       1.00
      H163          H  0.8170228  0.2640763  0.6562414    0.00000       Uiso       1.00
      H164          H  0.8046274  0.1938187  0.7201816    0.00000       Uiso       1.00
      C305          C  0.0733161  0.1396937  0.4943649    0.00000       Uiso       1.00
      C306          C  0.1017414  0.1366999  0.4820976    0.00000       Uiso       1.00
      C307          C  0.0621896  0.1468386  0.4749680    0.00000       Uiso       1.00
      C308          C  0.0794171  0.1510565  0.4435496    0.00000       Uiso       1.00
      C309          C  0.1079733  0.1482671  0.4307517    0.00000       Uiso       1.00
      C310          C  0.1187298  0.1410702  0.4506375    0.00000       Uiso       1.00
      H165          H  0.1406143  0.1383035  0.4416362    0.00000       Uiso       1.00
      H166          H  0.0702852  0.1569360  0.4291602    0.00000       Uiso       1.00
      C311          C  0.0162502  0.1682663  0.6976371    0.00000       Uiso       1.00
      C312          C  0.0132902  0.1551131  0.7260005    0.00000       Uiso       1.00
      C313          C  0.0233561  0.1916471  0.6866046    0.00000       Uiso       1.00
      C314          C  0.0275691  0.2016333  0.7038635    0.00000       Uiso       1.00
      C315          C  0.0248133  0.1886756  0.7323588    0.00000       Uiso       1.00
      C316          C  0.0176554  0.1652275  0.7430212    0.00000       Uiso       1.00
      H167          H  0.0149144  0.1551190  0.7648571    0.00000       Uiso       1.00
      H168          H  0.0334191  0.2192768  0.6948039    0.00000       Uiso       1.00
      C317          C  0.0089078  0.0008293  0.6296006    0.00000       Uiso       1.00
      C318          C  0.9990099  0.0319972  0.6252899    0.00000       Uiso       1.00
      C319          C  0.0815116  0.9865879  0.6499473    0.00000       Uiso       1.00
      C320          C  0.0714883  0.0177750  0.6457757    0.00000       Uiso       1.00
      C321          C  0.0339239  0.1495544  0.4874930    0.00000       Uiso       1.00
      C322          C  0.0169740  0.1452984  0.5186528    0.00000       Uiso       1.00
      C323          C  0.0260383  0.2046608  0.6583997    0.00000       Uiso       1.00
      C324          C  0.0217872  0.1946940  0.6414182    0.00000       Uiso       1.00
      C325          C  0.0057877  0.1321261  0.7368565    0.00000       Uiso       1.00
      C326          C  0.0013972  0.1222850  0.7199073    0.00000       Uiso       1.00
      H169          H  0.0032683  0.1216985  0.7585788    0.00000       Uiso       1.00
      H170          H  0.9956668  0.1045211  0.7290251    0.00000       Uiso       1.00
      H171          H  0.0314270  0.2226641  0.6494062    0.00000       Uiso       1.00
      H172          H  0.0240773  0.2052557  0.6197926    0.00000       Uiso       1.00
      H173          H  0.0820427  0.0265611  0.6481142    0.00000       Uiso       1.00
      H174          H  0.0995492  0.9722114  0.6553257    0.00000       Uiso       1.00
      H175          H  0.9812117  0.0463511  0.6195711    0.00000       Uiso       1.00
      H176          H  0.9984874  0.9920409  0.6270331    0.00000       Uiso       1.00
      H177          H  0.9952989  0.1476151  0.5274406    0.00000       Uiso       1.00
      H178          H  0.0248580  0.1549736  0.4731380    0.00000       Uiso       1.00
      C327          C  0.0015808  0.0760379  0.6245655    0.00000       Uiso       1.00
      C328          C  0.0130675  0.0893341  0.6292754    0.00000       Uiso       1.00
      C329          C  0.0376213  0.0689605  0.6349463    0.00000       Uiso       1.00
      C330          C  0.0480518  0.0374300  0.6388738    0.00000       Uiso       1.00
      C331          C  0.0348414  0.0252190  0.6359588    0.00000       Uiso       1.00
      C332          C  0.0116967  0.0445661  0.6285243    0.00000       Uiso       1.00
      H179          H  0.9843271  0.0903741  0.6181437    0.00000       Uiso       1.00
      H180          H  0.0486847  0.0776472  0.6364484    0.00000       Uiso       1.00
      C333          C  0.9658725  0.1438800  0.6372378    0.00000       Uiso       1.00
      C334          C  0.9525175  0.1733529  0.6258219    0.00000       Uiso       1.00
      C335          C  0.9455164  0.1340195  0.6617061    0.00000       Uiso       1.00
      C336          C  0.9139484  0.1511637  0.6721199    0.00000       Uiso       1.00
      C337          C  0.9016802  0.1794803  0.6589798    0.00000       Uiso       1.00
      C338          C  0.9210077  0.1907214  0.6359220    0.00000       Uiso       1.00
      H181          H  0.9668376  0.1826981  0.6086366    0.00000       Uiso       1.00
      H182          H  0.9542463  0.1127823  0.6727152    0.00000       Uiso       1.00
      C339          C  0.0204469  0.1286007  0.5901321    0.00000       Uiso       1.00
      C340          C  0.0499354  0.1239233  0.5768301    0.00000       Uiso       1.00
      C341          C  0.0105622  0.1343284  0.5697838    0.00000       Uiso       1.00
      C342          C  0.0276928  0.1383410  0.5382797    0.00000       Uiso       1.00
      C343          C  0.0560223  0.1354566  0.5260671    0.00000       Uiso       1.00
      C344          C  0.0672906  0.1279671  0.5453848    0.00000       Uiso       1.00
      H183          H  0.0593027  0.1174604  0.5911422    0.00000       Uiso       1.00
      H184          H  0.9893156  0.1358085  0.5784700    0.00000       Uiso       1.00
      C345          C  0.0051751  0.1364231  0.6446714    0.00000       Uiso       1.00
      C346          C  0.0005284  0.1249235  0.6740992    0.00000       Uiso       1.00
      C347          C  0.0108619  0.1609297  0.6348805    0.00000       Uiso       1.00
      C348          C  0.0148688  0.1713035  0.6520436    0.00000       Uiso       1.00
      C349          C  0.0120183  0.1580819  0.6803111    0.00000       Uiso       1.00
      C350          C  0.0045673  0.1349829  0.6914856    0.00000       Uiso       1.00
      H185          H  0.9940934  0.1077049  0.6833943    0.00000       Uiso       1.00
      H186          H  0.0123146  0.1720003  0.6136831    0.00000       Uiso       1.00
      C351          C  0.9083815  0.2191909  0.6233056    0.00000       Uiso       1.00
      C352          C  0.8771763  0.2361226  0.6331864    0.00000       Uiso       1.00
      C353          C  0.8943120  0.1404712  0.6954704    0.00000       Uiso       1.00
      C354          C  0.8630881  0.1574349  0.7054770    0.00000       Uiso       1.00
      C355          C  0.0957732  0.1247640  0.5328138    0.00000       Uiso       1.00
      C356          C  0.1126909  0.1291592  0.5016730    0.00000       Uiso       1.00
      H187          H  0.8683448  0.2578833  0.6228215    0.00000       Uiso       1.00
      H188          H  0.9227193  0.2283603  0.6055749    0.00000       Uiso       1.00
      H189          H  0.9031418  0.1188069  0.7059696    0.00000       Uiso       1.00
      H190          H  0.8487275  0.1483893  0.7234473    0.00000       Uiso       1.00
      H191          H  0.1049635  0.1190044  0.5471453    0.00000       Uiso       1.00
      H192          H  0.1344623  0.1266134  0.4928830    0.00000       Uiso       1.00
      C357          C  0.3748680  0.3746682  0.1254387    0.00000       Uiso       1.00
      C358          C  0.2780419  0.2320446  0.1800172    0.00000       Uiso       1.00
      C359          C  0.2717867  0.2491065  0.2005789    0.00000       Uiso       1.00
      C360          C  0.2515754  0.2483190  0.2318643    0.00000       Uiso       1.00
      C361          C  0.2374676  0.2309941  0.2424383    0.00000       Uiso       1.00
      C362          C  0.2434493  0.2142051  0.2218196    0.00000       Uiso       1.00
      C363          C  0.2638262  0.2148203  0.1905483    0.00000       Uiso       1.00
      H193          H  0.2939208  0.2318263  0.1558574    0.00000       Uiso       1.00
      H194          H  0.2689280  0.2018974  0.1742207    0.00000       Uiso       1.00
      H195          H  0.2467324  0.2611199  0.2480984    0.00000       Uiso       1.00
      H196          H  0.2218840  0.2307886  0.2667051    0.00000       Uiso       1.00
      C364          C  0.5279697  0.3471871  0.8969283    0.00000       Uiso       1.00
      C365          C  0.5593690  0.3329227  0.8860967    0.00000       Uiso       1.00
      C366          C  0.5175957  0.3582828  0.8759730    0.00000       Uiso       1.00
      C367          C  0.5383988  0.3548120  0.8445588    0.00000       Uiso       1.00
      C368          C  0.5698557  0.3402172  0.8337267    0.00000       Uiso       1.00
      C369          C  0.5802225  0.3293011  0.8546751    0.00000       Uiso       1.00
      H197          H  0.5679352  0.3246261  0.9017234    0.00000       Uiso       1.00
      H198          H  0.6043967  0.3181069  0.8468341    0.00000       Uiso       1.00
      H199          H  0.4933785  0.3696420  0.8839507    0.00000       Uiso       1.00
      H200          H  0.5298538  0.3635108  0.8288035    0.00000       Uiso       1.00
      C370          C  0.4783656  0.2991589  0.2507389    0.00000       Uiso       1.00
      C371          C  0.4721032  0.3196857  0.2678464    0.00000       Uiso       1.00
      C372          C  0.4986435  0.2678557  0.2514434    0.00000       Uiso       1.00
      C373          C  0.5128090  0.2572307  0.2687317    0.00000       Uiso       1.00
      C374          C  0.5068195  0.2778153  0.2855666    0.00000       Uiso       1.00
      C375          C  0.4863766  0.3091040  0.2850343    0.00000       Uiso       1.00
      H201          H  0.4561748  0.3438570  0.2681284    0.00000       Uiso       1.00
      H202          H  0.4812678  0.3254056  0.2979938    0.00000       Uiso       1.00
      H203          H  0.5034934  0.2516473  0.2386062    0.00000       Uiso       1.00
      H204          H  0.5284433  0.2329512  0.2688731    0.00000       Uiso       1.00
      C376          C  0.2213501  0.6032200  0.1535085    0.00000       Uiso       1.00
      C377          C  0.1899580  0.6140195  0.1677942    0.00000       Uiso       1.00
      C378          C  0.2316577  0.6242150  0.1424737    0.00000       Uiso       1.00
      C379          C  0.2107967  0.6556357  0.1460256    0.00000       Uiso       1.00
      C380          C  0.1793476  0.6664348  0.1606416    0.00000       Uiso       1.00
      C381          C  0.1690469  0.6454472  0.1714969    0.00000       Uiso       1.00
      H205          H  0.1814414  0.5983630  0.1760453    0.00000       Uiso       1.00
      H206          H  0.1448798  0.6532626  0.1827060    0.00000       Uiso       1.00
      H207          H  0.2558678  0.6162633  0.1310993    0.00000       Uiso       1.00
      H208          H  0.2192910  0.6714219  0.1373728    0.00000       Uiso       1.00
      C382          C  0.3322506  0.2739618  0.1559266    0.00000       Uiso       1.00
      C383          C  0.3161022  0.3023460  0.1690874    0.00000       Uiso       1.00
      C384          C  0.2855928  0.3133959  0.1924618    0.00000       Uiso       1.00
      C385          C  0.2714059  0.2961334  0.2024343    0.00000       Uiso       1.00
      C386          C  0.2871546  0.2676173  0.1894688    0.00000       Uiso       1.00
      C387          C  0.3177830  0.2569376  0.1660274    0.00000       Uiso       1.00
      H209          H  0.3306595  0.2350857  0.1559131    0.00000       Uiso       1.00
      H210          H  0.2478944  0.3052064  0.2200734    0.00000       Uiso       1.00
      C388          C  0.4620762  0.3598139  0.9944271    0.00000       Uiso       1.00
      C389          C  0.4874869  0.3628337  0.9821693    0.00000       Uiso       1.00
      C390          C  0.4580920  0.3527108  0.9750077    0.00000       Uiso       1.00
      C391          C  0.4795145  0.3485601  0.9435762    0.00000       Uiso       1.00
      C392          C  0.5052605  0.3513766  0.9307871    0.00000       Uiso       1.00
      C393          C  0.5088232  0.3585306  0.9506956    0.00000       Uiso       1.00
      H211          H  0.5279244  0.3613163  0.9417030    0.00000       Uiso       1.00
      H212          H  0.4762617  0.3427116  0.9291684    0.00000       Uiso       1.00
      C394          C  0.4338744  0.3308068  0.1976093    0.00000       Uiso       1.00
      C395          C  0.4177576  0.3438990  0.2260140    0.00000       Uiso       1.00
      C396          C  0.4644094  0.3074500  0.1865032    0.00000       Uiso       1.00
      C397          C  0.4786528  0.2974268  0.2037308    0.00000       Uiso       1.00
      C398          C  0.4629364  0.3103233  0.2322668    0.00000       Uiso       1.00
      C399          C  0.4322816  0.3337482  0.2430029    0.00000       Uiso       1.00
      H213          H  0.4194294  0.3438097  0.2648706    0.00000       Uiso       1.00
      H214          H  0.5021821  0.2798029  0.1946157    0.00000       Uiso       1.00
      C400          C  0.2874193  0.5057058  0.1406309    0.00000       Uiso       1.00
      C401          C  0.2619769  0.5179778  0.1376450    0.00000       Uiso       1.00
      C402          C  0.2913781  0.5251160  0.1477816    0.00000       Uiso       1.00
      C403          C  0.2698991  0.5565524  0.1520131    0.00000       Uiso       1.00
      C404          C  0.2441207  0.5693553  0.1492318    0.00000       Uiso       1.00
      C405          C  0.2405844  0.5494558  0.1420289    0.00000       Uiso       1.00
      H215          H  0.2214588  0.5584603  0.1392684    0.00000       Uiso       1.00
      H216          H  0.2731343  0.5709519  0.1578966    0.00000       Uiso       1.00
      C406          C  0.3627626  0.2630886  0.1329459    0.00000       Uiso       1.00
      C407          C  0.3769821  0.2800414  0.1231182    0.00000       Uiso       1.00
      C408          C  0.2698619  0.3416215  0.2054830    0.00000       Uiso       1.00
      C409          C  0.2840678  0.3586065  0.1955297    0.00000       Uiso       1.00
      C410          C  0.4801087  0.2944969  0.1582574    0.00000       Uiso       1.00
      C411          C  0.4658470  0.3045000  0.1413072    0.00000       Uiso       1.00
      C412          C  0.3169394  0.5125861  0.1504894    0.00000       Uiso       1.00
      C413          C  0.3381787  0.4814086  0.1462199    0.00000       Uiso       1.00
      C414          C  0.2585913  0.4983888  0.1300987    0.00000       Uiso       1.00
      C415          C  0.2799375  0.4672301  0.1256902    0.00000       Uiso       1.00
      H217          H  0.2393578  0.5071819  0.1275590    0.00000       Uiso       1.00
      H218          H  0.2765239  0.4528885  0.1199266    0.00000       Uiso       1.00
      H219          H  0.3205694  0.5269511  0.1559127    0.00000       Uiso       1.00
      H220          H  0.3575444  0.4726175  0.1485308    0.00000       Uiso       1.00
      H221          H  0.2711889  0.3802482  0.2060969    0.00000       Uiso       1.00
      H222          H  0.2464518  0.3506286  0.2234817    0.00000       Uiso       1.00
      H223          H  0.4004939  0.2709100  0.1053588    0.00000       Uiso       1.00
      H224          H  0.3757368  0.2413501  0.1225127    0.00000       Uiso       1.00
      H225          H  0.4787028  0.2939848  0.1196485    0.00000       Uiso       1.00
      H226          H  0.5035375  0.2765131  0.1492073    0.00000       Uiso       1.00
      C416          C  0.3751650  0.3258739  0.1257782    0.00000       Uiso       1.00
      C417          C  0.3589835  0.3553223  0.1372867    0.00000       Uiso       1.00
      C418          C  0.3287680  0.3651303  0.1617859    0.00000       Uiso       1.00
      C419          C  0.3143992  0.3479640  0.1721458    0.00000       Uiso       1.00
      C420          C  0.3305063  0.3196756  0.1589168    0.00000       Uiso       1.00
      C421          C  0.3610792  0.3084838  0.1358238    0.00000       Uiso       1.00
      H227          H  0.3988359  0.3165655  0.1085636    0.00000       Uiso       1.00
      H228          H  0.3162178  0.3863439  0.1728616    0.00000       Uiso       1.00
      C422          C  0.3981881  0.3707023  0.0902291    0.00000       Uiso       1.00
      C423          C  0.4229730  0.3754080  0.0769419    0.00000       Uiso       1.00
      C424          C  0.3940239  0.3650184  0.0698628    0.00000       Uiso       1.00
      C425          C  0.4151436  0.3610733  0.0383462    0.00000       Uiso       1.00
      C426          C  0.4405683  0.3639836  0.0261428    0.00000       Uiso       1.00
      C427          C  0.4443487  0.3714314  0.0454839    0.00000       Uiso       1.00
      H229          H  0.4258762  0.3818402  0.0912741    0.00000       Uiso       1.00
      H230          H  0.3742711  0.3635198  0.0785443    0.00000       Uiso       1.00
      C428          C  0.3908173  0.3627633  0.1447436    0.00000       Uiso       1.00
      C429          C  0.3746730  0.3741995  0.1742075    0.00000       Uiso       1.00
      C430          C  0.4210634  0.3382779  0.1348758    0.00000       Uiso       1.00
      C431          C  0.4354891  0.3278674  0.1520062    0.00000       Uiso       1.00
      C432          C  0.4194133  0.3410282  0.1803153    0.00000       Uiso       1.00
      C433          C  0.3888158  0.3641030  0.1915624    0.00000       Uiso       1.00
      H231          H  0.3509858  0.3913980  0.1835567    0.00000       Uiso       1.00
      H232          H  0.4335924  0.3272527  0.1136436    0.00000       Uiso       1.00
      C434          C  0.3514833  0.4098850  0.1294955    0.00000       Uiso       1.00
      C435          C  0.3266610  0.4231912  0.1248274    0.00000       Uiso       1.00
      C436          C  0.3556172  0.4302464  0.1352303    0.00000       Uiso       1.00
      C437          C  0.3344403  0.4617684  0.1392566    0.00000       Uiso       1.00
      C438          C  0.3089843  0.4739856  0.1363801    0.00000       Uiso       1.00
      C439          C  0.3052283  0.4546545  0.1288850    0.00000       Uiso       1.00
      H233          H  0.3237740  0.4088689  0.1183607    0.00000       Uiso       1.00
      H234          H  0.3753911  0.4215565  0.1367052    0.00000       Uiso       1.00
      C440          C  0.4696067  0.3746611  0.0329230    0.00000       Uiso       1.00
      C441          C  0.4908975  0.3703326  0.0017685    0.00000       Uiso       1.00
      C442          C  0.4113789  0.3541581  0.0186975    0.00000       Uiso       1.00
      C443          C  0.4325624  0.3499685  0.9875242    0.00000       Uiso       1.00
      C444          C  0.3729455  0.3767397  0.2200240    0.00000       Uiso       1.00
      C445          C  0.3872205  0.3668624  0.2369423    0.00000       Uiso       1.00
      H235          H  0.5101074  0.3728964  0.9929863    0.00000       Uiso       1.00
      H236          H  0.4730380  0.3803899  0.0472726    0.00000       Uiso       1.00
      H237          H  0.3920364  0.3518228  0.0274780    0.00000       Uiso       1.00
      H238          H  0.4289140  0.3445803  0.9731522    0.00000       Uiso       1.00
      H239          H  0.3494158  0.3944838  0.2291977    0.00000       Uiso       1.00
      H240          H  0.3742698  0.3772433  0.2586975    0.00000       Uiso       1.00
      C446          C  0.2507531  0.0018214  0.9997538    0.00000       Uiso       1.00
      C447          C  0.2089278  0.0984556  0.1843796    0.00000       Uiso       1.00
      C448          C  0.2231738  0.1047582  0.1530454    0.00000       Uiso       1.00
      C449          C  0.2342382  0.1249984  0.1427631    0.00000       Uiso       1.00
      C450          C  0.2307540  0.1390870  0.1635928    0.00000       Uiso       1.00
      C451          C  0.2161771  0.1330572  0.1949849    0.00000       Uiso       1.00
      C452          C  0.2052926  0.1126518  0.2052598    0.00000       Uiso       1.00
      H241          H  0.2006563  0.0825547  0.1928744    0.00000       Uiso       1.00
      H242          H  0.1941130  0.1075131  0.2293825    0.00000       Uiso       1.00
      H243          H  0.2455833  0.1298787  0.1185969    0.00000       Uiso       1.00
      H244          H  0.2394284  0.1546934  0.1551192    0.00000       Uiso       1.00
      C453          C  0.1754984  0.8485047  0.1025620    0.00000       Uiso       1.00
      C454          C  0.1960817  0.8171515  0.0962468    0.00000       Uiso       1.00
      C455          C  0.1441734  0.8588023  0.1227971    0.00000       Uiso       1.00
      C456          C  0.1335828  0.8379692  0.1368682    0.00000       Uiso       1.00
      C457          C  0.1542241  0.8065583  0.1308257    0.00000       Uiso       1.00
      C458          C  0.1855345  0.7962680  0.1104255    0.00000       Uiso       1.00
      H245          H  0.2202705  0.8086445  0.0803497    0.00000       Uiso       1.00
      H246          H  0.2018796  0.7721307  0.1052772    0.00000       Uiso       1.00
      H247          H  0.1279213  0.8829830  0.1276870    0.00000       Uiso       1.00
      H248          H  0.1092856  0.8464550  0.1524710    0.00000       Uiso       1.00
      C459          C  0.4795051  0.8988842  0.8464629    0.00000       Uiso       1.00
      C460          C  0.4902844  0.9051869  0.8151287    0.00000       Uiso       1.00
      C461          C  0.5005476  0.8786441  0.8567453    0.00000       Uiso       1.00
      C462          C  0.5319958  0.8645555  0.8359156    0.00000       Uiso       1.00
      C463          C  0.5427752  0.8705853  0.8045235    0.00000       Uiso       1.00
      C464          C  0.5217398  0.8909906  0.7942486    0.00000       Uiso       1.00
      H249          H  0.4745908  0.9210878  0.8066338    0.00000       Uiso       1.00
      H250          H  0.5295390  0.8961294  0.7701259    0.00000       Uiso       1.00
      H251          H  0.4926118  0.8737638  0.8809114    0.00000       Uiso       1.00
      H252          H  0.5478188  0.8489491  0.8443893    0.00000       Uiso       1.00
      C465          C  0.1248358  0.1551379  0.8969454    0.00000       Uiso       1.00
      C466          C  0.1077192  0.1864910  0.9032605    0.00000       Uiso       1.00
      C467          C  0.1240539  0.1448403  0.8767102    0.00000       Uiso       1.00
      C468          C  0.1066804  0.1656734  0.8626390    0.00000       Uiso       1.00
      C469          C  0.0898368  0.1970843  0.8686815    0.00000       Uiso       1.00
      C470          C  0.0904463  0.2073745  0.8890818    0.00000       Uiso       1.00
      H253          H  0.1074954  0.1949980  0.9191577    0.00000       Uiso       1.00
      H254          H  0.0774816  0.2315119  0.8942300    0.00000       Uiso       1.00
      H255          H  0.1368968  0.1206596  0.8718202    0.00000       Uiso       1.00
      H256          H  0.1064804  0.1571877  0.8470361    0.00000       Uiso       1.00
      C471          C  0.2389028  0.0443501  0.1124256    0.00000       Uiso       1.00
      C472          C  0.2358433  0.0605067  0.0870721    0.00000       Uiso       1.00
      C473          C  0.2286868  0.0910036  0.0831709    0.00000       Uiso       1.00
      C474          C  0.2245225  0.1051697  0.1046186    0.00000       Uiso       1.00
      C475          C  0.2273781  0.0894121  0.1303081    0.00000       Uiso       1.00
      C476          C  0.2345856  0.0587966  0.1337876    0.00000       Uiso       1.00
      H257          H  0.2374025  0.0459150  0.1528445    0.00000       Uiso       1.00
      H258          H  0.2186325  0.1286708  0.1014291    0.00000       Uiso       1.00
      C477          C  0.2070364  0.9144888  0.0583658    0.00000       Uiso       1.00
      C478          C  0.2201672  0.8891145  0.0422045    0.00000       Uiso       1.00
      C479          C  0.1836768  0.9184072  0.0888493    0.00000       Uiso       1.00
      C480          C  0.1736894  0.8969560  0.1029975    0.00000       Uiso       1.00
      C481          C  0.1866251  0.8712456  0.0872350    0.00000       Uiso       1.00
      C482          C  0.2100521  0.8677490  0.0566331    0.00000       Uiso       1.00
      H259          H  0.2201423  0.8486761  0.0437484    0.00000       Uiso       1.00
      H260          H  0.1560633  0.9001587  0.1264884    0.00000       Uiso       1.00
      C483          C  0.3819054  0.9431358  0.9124360    0.00000       Uiso       1.00
      C484          C  0.3941456  0.9592925  0.8870826    0.00000       Uiso       1.00
      C485          C  0.4013753  0.9126388  0.9163370    0.00000       Uiso       1.00
      C486          C  0.4328389  0.8984727  0.8948894    0.00000       Uiso       1.00
      C487          C  0.4456106  0.9142304  0.8692002    0.00000       Uiso       1.00
      C488          C  0.4256514  0.9448460  0.8657207    0.00000       Uiso       1.00
      H261          H  0.4346307  0.9577276  0.8466640    0.00000       Uiso       1.00
      H262          H  0.4472842  0.8749716  0.8980788    0.00000       Uiso       1.00
      C489          C  0.1782279  0.0891537  0.9411417    0.00000       Uiso       1.00
      C490          C  0.1497978  0.1145281  0.9573029    0.00000       Uiso       1.00
      C491          C  0.1892742  0.0852353  0.9106581    0.00000       Uiso       1.00
      C492          C  0.1719622  0.1066866  0.8965099    0.00000       Uiso       1.00
      C493          C  0.1433993  0.1323969  0.9122723    0.00000       Uiso       1.00
      C494          C  0.1327242  0.1358936  0.9428743    0.00000       Uiso       1.00
      H263          H  0.1108378  0.1549665  0.9557590    0.00000       Uiso       1.00
      H264          H  0.1810330  0.1034837  0.8730190    0.00000       Uiso       1.00
      C495          C  0.2464547  0.0138517  0.1157542    0.00000       Uiso       1.00
      C496          C  0.2507974  0.9996528  0.0944385    0.00000       Uiso       1.00
      C497          C  0.2259056  0.1067433  0.0576978    0.00000       Uiso       1.00
      C498          C  0.2301086  0.0925583  0.0364891    0.00000       Uiso       1.00
      C499          C  0.3888765  0.8968990  0.9418099    0.00000       Uiso       1.00
      C500          C  0.3576716  0.9110840  0.9630185    0.00000       Uiso       1.00
      C501          C  0.2175460  0.0597415  0.8949137    0.00000       Uiso       1.00
      C502          C  0.2345800  0.0385293  0.9090810    0.00000       Uiso       1.00
      C503          C  0.1389293  0.1178738  0.9877875    0.00000       Uiso       1.00
      C504          C  0.1559312  0.0965549  0.0019684    0.00000       Uiso       1.00
      H265          H  0.1171563  0.1370551  0.0007706    0.00000       Uiso       1.00
      H266          H  0.1468017  0.0999362  0.0254600    0.00000       Uiso       1.00
      H267          H  0.2265516  0.0561436  0.8715227    0.00000       Uiso       1.00
      H268          H  0.2562565  0.0192158  0.8961929    0.00000       Uiso       1.00
      H269          H  0.2277423  0.1054433  0.0171919    0.00000       Uiso       1.00
      H270          H  0.2204761  0.1301443  0.0541136    0.00000       Uiso       1.00
      H271          H  0.2565676  0.9761510  0.0978062    0.00000       Uiso       1.00
      H272          H  0.2490503  0.0008720  0.1349189    0.00000       Uiso       1.00
      H273          H  0.3489060  0.8981990  0.9823157    0.00000       Uiso       1.00
      H274          H  0.4032872  0.8734980  0.9453941    0.00000       Uiso       1.00
      C505          C  0.2515178  0.0014988  0.0478355    0.00000       Uiso       1.00
      C506          C  0.2467720  0.0176846  0.0231041    0.00000       Uiso       1.00
      C507          C  0.2410358  0.0478908  0.0190249    0.00000       Uiso       1.00
      C508          C  0.2370767  0.0622392  0.0401710    0.00000       Uiso       1.00
      C509          C  0.2400265  0.0461236  0.0655384    0.00000       Uiso       1.00
      C510          C  0.2475280  0.0155641  0.0692364    0.00000       Uiso       1.00
      H275          H  0.2579921  0.9778391  0.0506763    0.00000       Uiso       1.00
      H276          H  0.2395070  0.0604487  0.9993179    0.00000       Uiso       1.00
      C511          C  0.2388871  0.9784673  0.0155973    0.00000       Uiso       1.00
      C512          C  0.2503600  0.9537151  0.9994068    0.00000       Uiso       1.00
      C513          C  0.2143979  0.9825637  0.0457903    0.00000       Uiso       1.00
      C514          C  0.2040226  0.9614142  0.0601209    0.00000       Uiso       1.00
      C515          C  0.2172219  0.9360261  0.0440007    0.00000       Uiso       1.00
      C516          C  0.2402990  0.9323109  0.0134547    0.00000       Uiso       1.00
      H277          H  0.2675598  0.9508612  0.9757581    0.00000       Uiso       1.00
      H278          H  0.2033422  0.0022870  0.0583522    0.00000       Uiso       1.00
      C517          C  0.2860011  0.9859579  0.9764038    0.00000       Uiso       1.00
      C518          C  0.2992760  0.0021444  0.9516725    0.00000       Uiso       1.00
      C519          C  0.3064224  0.9557516  0.9804828    0.00000       Uiso       1.00
      C520          C  0.3379721  0.9414032  0.9593368    0.00000       Uiso       1.00
      C521          C  0.3501574  0.9575189  0.9339696    0.00000       Uiso       1.00
      C522          C  0.3307668  0.9880785  0.9302716    0.00000       Uiso       1.00
      H279          H  0.2849078  0.0258036  0.9488319    0.00000       Uiso       1.00
      H280          H  0.2977577  0.9431937  0.0001896    0.00000       Uiso       1.00
      C523          C  0.2313528  0.0251752  0.9839104    0.00000       Uiso       1.00
      C524          C  0.2018589  0.0499275  0.0001008    0.00000       Uiso       1.00
      C525          C  0.2411571  0.0210788  0.9537174    0.00000       Uiso       1.00
      C526          C  0.2239417  0.0422283  0.9393867    0.00000       Uiso       1.00
      C527          C  0.1956073  0.0676165  0.9555069    0.00000       Uiso       1.00
      C528          C  0.1844195  0.0713318  0.9860529    0.00000       Uiso       1.00
      H281          H  0.1925532  0.0527816  0.0237495    0.00000       Uiso       1.00
      H282          H  0.2624060  0.0013561  0.9411556    0.00000       Uiso       1.00
      C529          C  0.2529739  0.9070879  0.9975391    0.00000       Uiso       1.00
      C530          C  0.2431323  0.8857689  0.0117199    0.00000       Uiso       1.00
      C531          C  0.1806527  0.9651132  0.0904266    0.00000       Uiso       1.00
      C532          C  0.1706848  0.9439009  0.1045939    0.00000       Uiso       1.00
      C533          C  0.3433109  0.0039898  0.9050698    0.00000       Uiso       1.00
      C534          C  0.3744972  0.9897909  0.8837542    0.00000       Uiso       1.00
      H283          H  0.2535422  0.8665877  0.9987368    0.00000       Uiso       1.00
      H284          H  0.2707207  0.9037067  0.9740474    0.00000       Uiso       1.00
      H285          H  0.1701082  0.9844264  0.1033149    0.00000       Uiso       1.00
      H286          H  0.1526979  0.9474988  0.1279849    0.00000       Uiso       1.00
      H287          H  0.3289235  0.0274916  0.9017022    0.00000       Uiso       1.00
      H288          H  0.3832644  0.0027713  0.8645895    0.00000       Uiso       1.00
       Si1         Si  0.7364446  0.6390357  0.2496988    0.00000       Uiso       1.00
        B1          B  0.7277735  0.6636475  0.2019467    0.00000       Uiso       1.00
        O1          O  0.7340897  0.6364569  0.2204566    0.00000       Uiso       1.00
        B2          B  0.7118414  0.6954075  0.2657712    0.00000       Uiso       1.00
        O2          O  0.7390366  0.6705973  0.2448432    0.00000       Uiso       1.00
        O3          O  0.7048833  0.6413093  0.2838577    0.00000       Uiso       1.00
        B3          B  0.6800119  0.6475755  0.2815247    0.00000       Uiso       1.00
        O4          O  0.7077657  0.6942039  0.2143006    0.00000       Uiso       1.00
        O5          O  0.6812335  0.7030731  0.2763620    0.00000       Uiso       1.00
        O6          O  0.6722853  0.6675800  0.2586654    0.00000       Uiso       1.00
       Si2         Si  0.6766469  0.6987077  0.2497948    0.00000       Uiso       1.00
      C535          C  0.6425305  0.7326940  0.2499122    0.00000       Uiso       1.00
        O7          O  0.6179288  0.7399681  0.2730183    0.00000       Uiso       1.00
        O8          O  0.6450468  0.7498806  0.2235880    0.00000       Uiso       1.00
      H289          H  0.6247959  0.7679825  0.2264213    0.00000       Uiso       1.00
      C536          C  0.7705591  0.6050395  0.2495753    0.00000       Uiso       1.00
        O9          O  0.7954499  0.5992142  0.2273446    0.00000       Uiso       1.00
       O10          O  0.7677095  0.5861818  0.2748896    0.00000       Uiso       1.00
      H290          H  0.7879934  0.5682454  0.2721561    0.00000       Uiso       1.00
       Si3         Si  0.6253189  0.3609632  0.7503018    0.00000       Uiso       1.00
        B4          B  0.5935322  0.3363515  0.7980538    0.00000       Uiso       1.00
       O11          O  0.5911404  0.3635421  0.7795439    0.00000       Uiso       1.00
        B5          B  0.6732163  0.3045915  0.7342294    0.00000       Uiso       1.00
       O12          O  0.6546487  0.3294016  0.7551575    0.00000       Uiso       1.00
       O13          O  0.6301925  0.3586897  0.7161427    0.00000       Uiso       1.00
        B6          B  0.6092606  0.3524235  0.7184756    0.00000       Uiso       1.00
       O14          O  0.6164656  0.3057950  0.7856998    0.00000       Uiso       1.00
       O15          O  0.6608726  0.2969259  0.7236385    0.00000       Uiso       1.00
       O16          O  0.5986993  0.3324189  0.7413350    0.00000       Uiso       1.00
       Si4         Si  0.6253492  0.3012913  0.7502056    0.00000       Uiso       1.00
      C537          C  0.6253706  0.2673050  0.7500882    0.00000       Uiso       1.00
       O17          O  0.6311563  0.2600310  0.7269821    0.00000       Uiso       1.00
       O18          O  0.6187666  0.2501183  0.7764124    0.00000       Uiso       1.00
      H291          H  0.6194690  0.2320165  0.7735789    0.00000       Uiso       1.00
      C538          C  0.6252795  0.3949594  0.7504254    0.00000       Uiso       1.00
       O19          O  0.6221086  0.4007847  0.7726561    0.00000       Uiso       1.00
       O20          O  0.6288674  0.4138173  0.7251111    0.00000       Uiso       1.00
      H292          H  0.6284636  0.4317536  0.7278446    0.00000       Uiso       1.00
       Si5         Si  0.5138568  0.2500060  0.3613391    0.00000       Uiso       1.00
        B7          B  0.5701908  0.2026236  0.3365734    0.00000       Uiso       1.00
       O21          O  0.5454724  0.2209953  0.3638381    0.00000       Uiso       1.00
       O22          O  0.5163531  0.2449545  0.3297995    0.00000       Uiso       1.00
        B8          B  0.5226262  0.2659180  0.3051315    0.00000       Uiso       1.00
        B9          B  0.5385697  0.2815725  0.3525412    0.00000       Uiso       1.00
       O23          O  0.5112860  0.2841020  0.3588544    0.00000       Uiso       1.00
       O24          O  0.5779057  0.2147696  0.3059968    0.00000       Uiso       1.00
       O25          O  0.5425098  0.2766673  0.2973956    0.00000       Uiso       1.00
       O26          O  0.5692090  0.2587394  0.3326455    0.00000       Uiso       1.00
       Si6         Si  0.5737286  0.2500701  0.3014975    0.00000       Uiso       1.00
      H293          H  0.4867081  0.2499770  0.3884742    0.00000       Uiso       1.00
      H294          H  0.6008773  0.2500992  0.2743623    0.00000       Uiso       1.00
       Si7         Si  0.1249520  0.7499931  0.6386598    0.00000       Uiso       1.00
       B10          B  0.1090904  0.7973754  0.6634255    0.00000       Uiso       1.00
       O27          O  0.1300267  0.7790039  0.6361608    0.00000       Uiso       1.00
       O28          O  0.0908522  0.7550446  0.6701992    0.00000       Uiso       1.00
       B11          B  0.0934418  0.7340811  0.6948673    0.00000       Uiso       1.00
       B12          B  0.1724651  0.7184266  0.6474578    0.00000       Uiso       1.00
       O29          O  0.1540267  0.7158971  0.6411445    0.00000       Uiso       1.00
       O30          O  0.0983867  0.7852295  0.6940021    0.00000       Uiso       1.00
       O31          O  0.1163496  0.7233317  0.7026032    0.00000       Uiso       1.00
       O32          O  0.1603527  0.7412596  0.6673536    0.00000       Uiso       1.00
       Si8         Si  0.1250462  0.7499291  0.6985015    0.00000       Uiso       1.00
      H295          H  0.1249094  0.7500221  0.6115245    0.00000       Uiso       1.00
      H296          H  0.1250890  0.7498999  0.7256367    0.00000       Uiso       1.00
       Si9         Si  0.1262374  0.7510330  0.1380600    0.00000       Uiso       1.00
       B13          B  0.1422507  0.7828479  0.1466757    0.00000       Uiso       1.00
       O33          O  0.1212996  0.7851999  0.1404190    0.00000       Uiso       1.00
       B14          B  0.1581773  0.7031876  0.1625342    0.00000       Uiso       1.00
       O34          O  0.1604694  0.7217757  0.1354040    0.00000       Uiso       1.00
       O35          O  0.0969893  0.7460809  0.1696005    0.00000       Uiso       1.00
       B15          B  0.0784269  0.7669601  0.1944464    0.00000       Uiso       1.00
       O36          O  0.1528994  0.7599252  0.1666103    0.00000       Uiso       1.00
       O37          O  0.1352875  0.7154664  0.1931108    0.00000       Uiso       1.00
       O38          O  0.0907646  0.7775426  0.2021278    0.00000       Uiso       1.00
      Si10         Si  0.1263294  0.7509687  0.1977039    0.00000       Uiso       1.00
      C539          C  0.1263231  0.7509279  0.2317329    0.00000       Uiso       1.00
       O39          O  0.1090405  0.7450922  0.2563072    0.00000       Uiso       1.00
       O40          O  0.1460676  0.7575741  0.2291824    0.00000       Uiso       1.00
      H297          H  0.1439868  0.7568557  0.2493856    0.00000       Uiso       1.00
      C540          C  0.1262318  0.7510918  0.1040329    0.00000       Uiso       1.00
       O41          O  0.1452555  0.7543166  0.0791668    0.00000       Uiso       1.00
       O42          O  0.1044789  0.7474573  0.1069201    0.00000       Uiso       1.00
      H298          H  0.1067586  0.7478775  0.0866835    0.00000       Uiso       1.00
      Si11         Si  0.6266423  0.8611112  0.7490135    0.00000       Uiso       1.00
       B16          B  0.6583020  0.8048336  0.7647693    0.00000       Uiso       1.00
       O43          O  0.6607970  0.8295692  0.7438815    0.00000       Uiso       1.00
       O44          O  0.5976436  0.8585353  0.7830857    0.00000       Uiso       1.00
       B17          B  0.5792130  0.8522256  0.7805408    0.00000       Uiso       1.00
       B18          B  0.6424569  0.8364582  0.7015898    0.00000       Uiso       1.00
       O45          O  0.6215022  0.8636880  0.7200241    0.00000       Uiso       1.00
       O46          O  0.6354325  0.7970654  0.7754927    0.00000       Uiso       1.00
       O47          O  0.5913193  0.8323801  0.7576668    0.00000       Uiso       1.00
       O48          O  0.6532492  0.8058343  0.7136489    0.00000       Uiso       1.00
      Si12         Si  0.6266723  0.8012395  0.7489195    0.00000       Uiso       1.00
      H299          H  0.6266288  0.8882600  0.7490562    0.00000       Uiso       1.00
      H300          H  0.6266858  0.7740907  0.7488769    0.00000       Uiso       1.00
      Si13         Si  0.0140015  0.2500416  0.8598707    0.00000       Uiso       1.00
       B19          B  0.0385200  0.2341113  0.8034892    0.00000       Uiso       1.00
       O49          O  0.0113351  0.2549919  0.8283350    0.00000       Uiso       1.00
       B20          B  0.0704814  0.2182235  0.8512557    0.00000       Uiso       1.00
       O50          O  0.0456209  0.2158762  0.8575221    0.00000       Uiso       1.00
       O51          O  0.0163046  0.2792929  0.8625237    0.00000       Uiso       1.00
       B21          B  0.0225261  0.2978838  0.8353970    0.00000       Uiso       1.00
       O52          O  0.0691310  0.2235303  0.7958082    0.00000       Uiso       1.00
       O53          O  0.0781276  0.2411405  0.8313130    0.00000       Uiso       1.00
       O54          O  0.0424957  0.2856049  0.8048223    0.00000       Uiso       1.00
      Si14         Si  0.0736735  0.2501073  0.8002293    0.00000       Uiso       1.00
      C541          C  0.1076598  0.2502033  0.7662646    0.00000       Uiso       1.00
       O55          O  0.1149590  0.2675019  0.7648031    0.00000       Uiso       1.00
       O56          O  0.1248177  0.2305080  0.7424436    0.00000       Uiso       1.00
      H301          H  0.1429226  0.2326362  0.7250476    0.00000       Uiso       1.00
      C542          C  0.9800044  0.2499574  0.8938274    0.00000       Uiso       1.00
       O57          O  0.9741598  0.2309200  0.8964471    0.00000       Uiso       1.00
       O58          O  0.9611686  0.2716585  0.9163124    0.00000       Uiso       1.00
      H302          H  0.9432299  0.2693316  0.9338406    0.00000       Uiso       1.00
      Si15         Si  0.2371299  0.1388877  0.2509882    0.00000       Uiso       1.00
       B22          B  0.2282111  0.1951653  0.2352326    0.00000       Uiso       1.00
       O59          O  0.2345788  0.1704297  0.2561204    0.00000       Uiso       1.00
       O60          O  0.2396249  0.1414635  0.2169160    0.00000       Uiso       1.00
       B23          B  0.2123333  0.1477733  0.2194609    0.00000       Uiso       1.00
       B24          B  0.1808429  0.1635407  0.2984119    0.00000       Uiso       1.00
       O61          O  0.2055798  0.1363109  0.2799776    0.00000       Uiso       1.00
       O62          O  0.2082891  0.2029335  0.2245091    0.00000       Uiso       1.00
       O63          O  0.1817002  0.1676187  0.2423348    0.00000       Uiso       1.00
       O64          O  0.1730397  0.1941646  0.2863528    0.00000       Uiso       1.00
      Si16         Si  0.1771341  0.1987594  0.2510821    0.00000       Uiso       1.00
      H303          H  0.2643350  0.1117389  0.2509457    0.00000       Uiso       1.00
      H304          H  0.1499289  0.2259081  0.2511247    0.00000       Uiso       1.00
