data_22
_audit_creation_date              0000-00-00
_audit_creation_method            'LanYouShi'
_symmetry_space_group_name_H-M    'P1'
_cell_length_a                    84.9225998
_cell_length_b                    73.5671005
_cell_length_c                    73.5671005
_cell_angle_alpha                 70.5409012
_cell_angle_beta                  54.7477989
_cell_angle_gamma                 54.7476997
loop_
_atom_site_label
_atom_site_type_symbol
_atom_site_fract_x
_atom_site_fract_y
_atom_site_fract_z
_atom_site_U_iso_or_equiv
_atom_site_adp_type
_atom_site_occupancy
        C1          C  0.5000001  0.5000001  0.4999996    0.00000       Uiso       1.00
        C2          C  0.3238288  0.6357540  0.5712991    0.00000       Uiso       1.00
        C3          C  0.3317908  0.6126804  0.5759009    0.00000       Uiso       1.00
        C4          C  0.3163533  0.6050819  0.5907801    0.00000       Uiso       1.00
        C5          C  0.2932285  0.6203931  0.6011683    0.00000       Uiso       1.00
        C6          C  0.2852666  0.6435089  0.5967672    0.00000       Uiso       1.00
        C7          C  0.3006988  0.6511022  0.5817665    0.00000       Uiso       1.00
        H1          H  0.3353407  0.6420304  0.5596102    0.00000       Uiso       1.00
        H2          H  0.3222165  0.5872867  0.5943435    0.00000       Uiso       1.00
        C8          C  0.5923077  0.5759016  0.3873195    0.00000       Uiso       1.00
        C9          C  0.6048716  0.5712997  0.3642460    0.00000       Uiso       1.00
       C10          C  0.5928661  0.5907809  0.3949181    0.00000       Uiso       1.00
       C11          C  0.6056026  0.6011690  0.3796069    0.00000       Uiso       1.00
       C12          C  0.6179656  0.5967680  0.3564912    0.00000       Uiso       1.00
       C13          C  0.6175341  0.5817672  0.3488978    0.00000       Uiso       1.00
        H3          H  0.6050485  0.5596109  0.3579696    0.00000       Uiso       1.00
        H4          H  0.5834395  0.5943443  0.4127133    0.00000       Uiso       1.00
       C14          C  0.5203726  0.3873197  0.4240982    0.00000       Uiso       1.00
       C15          C  0.5308824  0.3642461  0.4287000    0.00000       Uiso       1.00
       C16          C  0.5122157  0.3949182  0.4092189    0.00000       Uiso       1.00
       C17          C  0.5147904  0.3796070  0.3988307    0.00000       Uiso       1.00
       C18          C  0.5255432  0.3564912  0.4032317    0.00000       Uiso       1.00
       C19          C  0.5335680  0.3488979  0.4182325    0.00000       Uiso       1.00
        H5          H  0.5369817  0.3579698  0.4403889    0.00000       Uiso       1.00
        H6          H  0.5038472  0.4127135  0.4056554    0.00000       Uiso       1.00
       C20          C  0.5555290  0.4240985  0.6126801    0.00000       Uiso       1.00
       C21          C  0.5404175  0.4287004  0.6357537    0.00000       Uiso       1.00
       C22          C  0.5785652  0.4092193  0.6050816    0.00000       Uiso       1.00
       C23          C  0.5863788  0.3988310  0.6203928    0.00000       Uiso       1.00
       C24          C  0.5712249  0.4032322  0.6435086    0.00000       Uiso       1.00
       C25          C  0.5481994  0.4182329  0.6511018    0.00000       Uiso       1.00
        H7          H  0.5226292  0.4403892  0.6420299    0.00000       Uiso       1.00
        H8          H  0.5904972  0.4056558  0.5872864    0.00000       Uiso       1.00
       C26          C  0.6057922  0.6172917  0.3884050    0.00000       Uiso       1.00
        H9          H  0.6150015  0.6229346  0.3762780    0.00000       Uiso       1.00
       H10          H  0.5910628  0.6292766  0.3959967    0.00000       Uiso       1.00
       H11          H  0.6114295  0.6096098  0.3983678    0.00000       Uiso       1.00
       C27          C  0.5058027  0.3884051  0.3827080    0.00000       Uiso       1.00
       H12          H  0.5087205  0.3762780  0.3770651    0.00000       Uiso       1.00
       H13          H  0.4902027  0.3983678  0.3903900    0.00000       Uiso       1.00
       H14          H  0.5129404  0.3959968  0.3707232    0.00000       Uiso       1.00
       C28          C  0.5313343  0.4235080  0.6760656    0.00000       Uiso       1.00
       H15          H  0.5389330  0.4153143  0.6842722    0.00000       Uiso       1.00
       H16          H  0.5239975  0.4389828  0.6784292    0.00000       Uiso       1.00
       H17          H  0.5206688  0.4194812  0.6808950    0.00000       Uiso       1.00
       C29          C  0.2926001  0.6760660  0.5764914    0.00000       Uiso       1.00
       H18          H  0.2767947  0.6842726  0.5846851    0.00000       Uiso       1.00
       H19          H  0.2984361  0.6808954  0.5805183    0.00000       Uiso       1.00
       H20          H  0.2975733  0.6784298  0.5610166    0.00000       Uiso       1.00
       C30          C  0.6309081  0.5764921  0.3239341    0.00000       Uiso       1.00
       H21          H  0.6385196  0.5846858  0.3157274    0.00000       Uiso       1.00
       H22          H  0.6414096  0.5610173  0.3215704    0.00000       Uiso       1.00
       H23          H  0.6210451  0.5805189  0.3191046    0.00000       Uiso       1.00
       C31          C  0.5451578  0.3239341  0.4235077    0.00000       Uiso       1.00
       H24          H  0.5457529  0.3157275  0.4153139    0.00000       Uiso       1.00
       H25          H  0.5598503  0.3191047  0.4194808    0.00000       Uiso       1.00
       H26          H  0.5370201  0.3215704  0.4389824    0.00000       Uiso       1.00
       C32          C  0.6114892  0.3827084  0.6115947    0.00000       Uiso       1.00
       H27          H  0.6142144  0.3770654  0.6237218    0.00000       Uiso       1.00
       H28          H  0.6163362  0.3707235  0.6040031    0.00000       Uiso       1.00
       H29          H  0.6194071  0.3903903  0.6016320    0.00000       Uiso       1.00
       C33          C  0.2769162  0.6115950  0.6172909    0.00000       Uiso       1.00
       H30          H  0.2620640  0.6237221  0.6229338    0.00000       Uiso       1.00
       H31          H  0.2789609  0.6016323  0.6096089    0.00000       Uiso       1.00
       H32          H  0.2796608  0.6040033  0.6292759    0.00000       Uiso       1.00
       C34          C  0.3945242  0.5828711  0.5314134    0.00000       Uiso       1.00
       C35          C  0.4035597  0.5641851  0.5432715    0.00000       Uiso       1.00
       C36          C  0.3892777  0.5612684  0.5657037    0.00000       Uiso       1.00
       C37          C  0.3661410  0.5770343  0.5761496    0.00000       Uiso       1.00
       C38          C  0.3567147  0.5959669  0.5645854    0.00000       Uiso       1.00
       C39          C  0.3713568  0.5985736  0.5420655    0.00000       Uiso       1.00
       H33          H  0.3647271  0.6126199  0.5326097    0.00000       Uiso       1.00
       H34          H  0.3555456  0.5746518  0.5934359    0.00000       Uiso       1.00
       C40          C  0.5531684  0.5432721  0.4358147    0.00000       Uiso       1.00
       C41          C  0.5740620  0.5314139  0.4171288    0.00000       Uiso       1.00
       C42          C  0.5450181  0.5657043  0.4387315    0.00000       Uiso       1.00
       C43          C  0.5577090  0.5761502  0.4229656    0.00000       Uiso       1.00
       C44          C  0.5786994  0.5645861  0.4040330    0.00000       Uiso       1.00
       C45          C  0.5865772  0.5420661  0.4014263    0.00000       Uiso       1.00
       H35          H  0.6026627  0.5326104  0.3873800    0.00000       Uiso       1.00
       H36          H  0.5510182  0.5934365  0.4253481    0.00000       Uiso       1.00
       C46          C  0.5110168  0.4358150  0.4567276    0.00000       Uiso       1.00
       C47          C  0.5088090  0.4171291  0.4685858    0.00000       Uiso       1.00
       C48          C  0.5162504  0.4387316  0.4342953    0.00000       Uiso       1.00
       C49          C  0.5193255  0.4229657  0.4238494    0.00000       Uiso       1.00
       C50          C  0.5172675  0.4040331  0.4354136    0.00000       Uiso       1.00
       C51          C  0.5119962  0.4014266  0.4579337    0.00000       Uiso       1.00
       H37          H  0.5099569  0.3873804  0.4673894    0.00000       Uiso       1.00
       H38          H  0.5236339  0.4253481  0.4065632    0.00000       Uiso       1.00
       C52          C  0.5322554  0.4567280  0.5641848    0.00000       Uiso       1.00
       C53          C  0.5226048  0.4685861  0.5828708    0.00000       Uiso       1.00
       C54          C  0.5494543  0.4342958  0.5612680    0.00000       Uiso       1.00
       C55          C  0.5568251  0.4238499  0.5770339    0.00000       Uiso       1.00
       C56          C  0.5473187  0.4354140  0.5959666    0.00000       Uiso       1.00
       C57          C  0.5300698  0.4579340  0.5985733    0.00000       Uiso       1.00
       H39          H  0.5226531  0.4673897  0.6126196    0.00000       Uiso       1.00
       H40          H  0.5698031  0.4065636  0.5746514    0.00000       Uiso       1.00
       C58          C  0.4089382  0.5853664  0.5089795    0.00000       Uiso       1.00
       C59          C  0.4318708  0.5696976  0.4985100    0.00000       Uiso       1.00
       C60          C  0.3985032  0.5424951  0.5772551    0.00000       Uiso       1.00
       C61          C  0.4214495  0.5269050  0.5667955    0.00000       Uiso       1.00
       C62          C  0.5182540  0.4575049  0.4227440    0.00000       Uiso       1.00
       C63          C  0.5151506  0.4730949  0.4332036    0.00000       Uiso       1.00
       C64          C  0.5590022  0.4227445  0.5424946    0.00000       Uiso       1.00
       C65          C  0.5516459  0.4332041  0.5269045    0.00000       Uiso       1.00
       C66          C  0.5056954  0.4910200  0.5853662    0.00000       Uiso       1.00
       C67          C  0.4984316  0.5014895  0.5696974    0.00000       Uiso       1.00
       H41          H  0.4980437  0.5005478  0.5994921    0.00000       Uiso       1.00
       H42          H  0.4853652  0.5187760  0.5722112    0.00000       Uiso       1.00
       H43          H  0.5722449  0.4055324  0.5398216    0.00000       Uiso       1.00
       H44          H  0.5593963  0.4237462  0.5126813    0.00000       Uiso       1.00
       H45          H  0.4279224  0.5126817  0.5762535    0.00000       Uiso       1.00
       H46          H  0.3879336  0.5398220  0.5944672    0.00000       Uiso       1.00
       H47          H  0.4424233  0.5722114  0.4812235    0.00000       Uiso       1.00
       H48          H  0.4024640  0.5994923  0.4994516    0.00000       Uiso       1.00
       H49          H  0.5168585  0.4873180  0.4237456    0.00000       Uiso       1.00
       H50          H  0.5222237  0.4601778  0.4055319    0.00000       Uiso       1.00
       C68          C  0.4642860  0.5353919  0.4998157    0.00000       Uiso       1.00
       C69          C  0.4740815  0.5171638  0.5116960    0.00000       Uiso       1.00
       C70          C  0.4591003  0.5141164  0.5339141    0.00000       Uiso       1.00
       C71          C  0.4359008  0.5296601  0.5444939    0.00000       Uiso       1.00
       C72          C  0.4269055  0.5483562  0.5326659    0.00000       Uiso       1.00
       C73          C  0.4411296  0.5511236  0.5101874    0.00000       Uiso       1.00
       H51          H  0.4748250  0.5375180  0.4824128    0.00000       Uiso       1.00
       H52          H  0.4654992  0.4995923  0.5431312    0.00000       Uiso       1.00
       C74          C  0.5142223  0.5116965  0.4828360    0.00000       Uiso       1.00
       C75          C  0.5358980  0.4998161  0.4646080    0.00000       Uiso       1.00
       C76          C  0.5069853  0.5339146  0.4858833    0.00000       Uiso       1.00
       C77          C  0.5196052  0.5444944  0.4703397    0.00000       Uiso       1.00
       C78          C  0.5404283  0.5326664  0.4516436    0.00000       Uiso       1.00
       C79          C  0.5486827  0.5101879  0.4488763    0.00000       Uiso       1.00
       H53          H  0.5427619  0.4824132  0.4624819    0.00000       Uiso       1.00
       H54          H  0.4913692  0.5431318  0.5004074    0.00000       Uiso       1.00
       C80          C  0.5029416  0.4828363  0.4883032    0.00000       Uiso       1.00
       C81          C  0.4994937  0.4646083  0.5001836    0.00000       Uiso       1.00
       C82          C  0.5071313  0.4858836  0.4660851    0.00000       Uiso       1.00
       C83          C  0.5100552  0.4703399  0.4555053    0.00000       Uiso       1.00
       C84          C  0.5079279  0.4516439  0.4673333    0.00000       Uiso       1.00
       C85          C  0.5024407  0.4488767  0.4898119    0.00000       Uiso       1.00
       H55          H  0.4947558  0.4624823  0.5175865    0.00000       Uiso       1.00
       H56          H  0.5082235  0.5004076  0.4568679    0.00000       Uiso       1.00
       C86          C  0.5087550  0.4883037  0.5171634    0.00000       Uiso       1.00
       C87          C  0.5003223  0.5001839  0.5353915    0.00000       Uiso       1.00
       C88          C  0.5267835  0.4660855  0.5141160    0.00000       Uiso       1.00
       C89          C  0.5344394  0.4555058  0.5296597    0.00000       Uiso       1.00
       C90          C  0.5247386  0.4673337  0.5483558    0.00000       Uiso       1.00
       C91          C  0.5077470  0.4898122  0.5511232    0.00000       Uiso       1.00
       H57          H  0.4876571  0.5175869  0.5375177    0.00000       Uiso       1.00
       H58          H  0.5349086  0.4568684  0.4995920    0.00000       Uiso       1.00
       C92          C  0.5696189  0.4985105  0.4303022    0.00000       Uiso       1.00
       C93          C  0.5820819  0.5089800  0.4146335    0.00000       Uiso       1.00
       C94          C  0.5117548  0.5667961  0.4730948    0.00000       Uiso       1.00
       C95          C  0.5242414  0.5772557  0.4575048    0.00000       Uiso       1.00
       C96          C  0.5000784  0.4303026  0.5014893    0.00000       Uiso       1.00
       C97          C  0.5032843  0.4146339  0.4910198    0.00000       Uiso       1.00
       H59          H  0.5980839  0.4994522  0.4005076    0.00000       Uiso       1.00
       H60          H  0.5763527  0.4812240  0.4277885    0.00000       Uiso       1.00
       H61          H  0.4958238  0.5762540  0.4873180    0.00000       Uiso       1.00
       H62          H  0.5175989  0.5944678  0.4601778    0.00000       Uiso       1.00
       H63          H  0.4958582  0.4277890  0.5187758    0.00000       Uiso       1.00
       H64          H  0.5014079  0.4005081  0.5005476    0.00000       Uiso       1.00
       C98          C  0.8748319  0.6251121  0.8750002    0.00000       Uiso       1.00
       C99          C  0.7389673  0.7300155  0.8347082    0.00000       Uiso       1.00
      C100          C  0.7620425  0.7174536  0.8195875    0.00000       Uiso       1.00
      C101          C  0.7696275  0.7180187  0.7965586    0.00000       Uiso       1.00
      C102          C  0.7543012  0.7307598  0.7887610    0.00000       Uiso       1.00
      C103          C  0.7311838  0.7431210  0.8039239    0.00000       Uiso       1.00
      C104          C  0.7236042  0.7426827  0.8269424    0.00000       Uiso       1.00
       H65          H  0.7327015  0.7301872  0.8524914    0.00000       Uiso       1.00
       H66          H  0.7874236  0.7085935  0.7846198    0.00000       Uiso       1.00
      C105          C  0.7990220  0.6454338  0.0431778    0.00000       Uiso       1.00
      C106          C  0.8036398  0.6559331  0.0511389    0.00000       Uiso       1.00
      C107          C  0.7841396  0.6372803  0.0586115    0.00000       Uiso       1.00
      C108          C  0.7737639  0.6398482  0.0817316    0.00000       Uiso       1.00
      C109          C  0.7781809  0.6505905  0.0896929    0.00000       Uiso       1.00
      C110          C  0.7931848  0.6586120  0.0742644    0.00000       Uiso       1.00
       H67          H  0.8153314  0.6620298  0.0396297    0.00000       Uiso       1.00
       H68          H  0.7805640  0.6289197  0.0527487    0.00000       Uiso       1.00
      C111          C  0.9875553  0.6806070  0.7827084    0.00000       Uiso       1.00
      C112          C  0.0106316  0.6654975  0.7701331    0.00000       Uiso       1.00
      C113          C  0.9799597  0.7036365  0.7821640    0.00000       Uiso       1.00
      C114          C  0.9952767  0.7114454  0.7694298    0.00000       Uiso       1.00
      C115          C  0.0183954  0.6962935  0.7570552    0.00000       Uiso       1.00
      C116          C  0.0259856  0.6732747  0.7574729    0.00000       Uiso       1.00
       H69          H  0.0169054  0.6477145  0.7699455    0.00000       Uiso       1.00
       H70          H  0.9621624  0.7155669  0.7915997    0.00000       Uiso       1.00
      C117          C  0.9507077  0.4569532  0.8545277    0.00000       Uiso       1.00
      C118          C  0.9460888  0.4490014  0.8440211    0.00000       Uiso       1.00
      C119          C  0.9656007  0.4415121  0.8626674    0.00000       Uiso       1.00
      C120          C  0.9759857  0.4183942  0.8600789    0.00000       Uiso       1.00
      C121          C  0.9715675  0.4104426  0.8493294    0.00000       Uiso       1.00
      C122          C  0.9565530  0.4258783  0.8413216    0.00000       Uiso       1.00
       H71          H  0.9343892  0.4605162  0.8379349    0.00000       Uiso       1.00
       H72          H  0.9691774  0.4473674  0.8710333    0.00000       Uiso       1.00
      C123          C  0.7576374  0.6308643  0.0980398    0.00000       Uiso       1.00
       H73          H  0.7520040  0.6337767  0.1128892    0.00000       Uiso       1.00
       H74          H  0.7456425  0.6380056  0.0953050    0.00000       Uiso       1.00
       H75          H  0.7653174  0.6152688  0.0959856    0.00000       Uiso       1.00
      C124          C  0.9864819  0.7365486  0.7692554    0.00000       Uiso       1.00
       H76          H  0.9986127  0.7392712  0.7600461    0.00000       Uiso       1.00
       H77          H  0.9765088  0.7444699  0.7636286    0.00000       Uiso       1.00
       H78          H  0.9788986  0.7413904  0.7839838    0.00000       Uiso       1.00
      C125          C  0.9512591  0.4177907  0.8297358    0.00000       Uiso       1.00
       H79          H  0.9594526  0.4019890  0.8291302    0.00000       Uiso       1.00
       H80          H  0.9357799  0.4227649  0.8378791    0.00000       Uiso       1.00
       H81          H  0.9552791  0.4236289  0.8150508    0.00000       Uiso       1.00
      C126          C  0.6986391  0.7560542  0.8438169    0.00000       Uiso       1.00
       H82          H  0.6904217  0.7636694  0.8362287    0.00000       Uiso       1.00
       H83          H  0.6938105  0.7461931  0.8544754    0.00000       Uiso       1.00
       H84          H  0.6962845  0.7665489  0.8511564    0.00000       Uiso       1.00
      C127          C  0.7984771  0.6701907  0.0823624    0.00000       Uiso       1.00
       H85          H  0.7902904  0.6707821  0.0981646    0.00000       Uiso       1.00
       H86          H  0.8139576  0.6620517  0.0773809    0.00000       Uiso       1.00
       H87          H  0.7944480  0.6848809  0.0765373    0.00000       Uiso       1.00
      C128          C  0.0509522  0.6564120  0.7440863    0.00000       Uiso       1.00
       H88          H  0.0591628  0.6640070  0.7364779    0.00000       Uiso       1.00
       H89          H  0.0557900  0.6457447  0.7539379    0.00000       Uiso       1.00
       H90          H  0.0533054  0.6490819  0.7335851    0.00000       Uiso       1.00
      C129          C  0.9921235  0.4020780  0.8690481    0.00000       Uiso       1.00
       H91          H  0.9977622  0.3872312  0.8661225    0.00000       Uiso       1.00
       H92          H  0.0041140  0.4048192  0.8619093    0.00000       Uiso       1.00
       H93          H  0.9844494  0.4041183  0.8846455    0.00000       Uiso       1.00
      C130          C  0.7630847  0.7309567  0.7636580    0.00000       Uiso       1.00
       H94          H  0.7509485  0.7401685  0.7609437    0.00000       Uiso       1.00
       H95          H  0.7730517  0.7365906  0.7557417    0.00000       Uiso       1.00
       H96          H  0.7706724  0.7162326  0.7588031    0.00000       Uiso       1.00
      C131          C  0.7918997  0.6991880  0.8524755    0.00000       Uiso       1.00
      C132          C  0.8105844  0.6782997  0.8428117    0.00000       Uiso       1.00
      C133          C  0.8134847  0.6701595  0.8256156    0.00000       Uiso       1.00
      C134          C  0.7977037  0.6828550  0.8182608    0.00000       Uiso       1.00
      C135          C  0.7787720  0.7038403  0.8277807    0.00000       Uiso       1.00
      C136          C  0.7761821  0.7117081  0.8450264    0.00000       Uiso       1.00
       H97          H  0.7621370  0.7277892  0.8524532    0.00000       Uiso       1.00
       H98          H  0.8000738  0.6761719  0.8052846    0.00000       Uiso       1.00
      C137          C  0.8316125  0.6361001  0.9714215    0.00000       Uiso       1.00
      C138          C  0.8434883  0.6338841  0.9804468    0.00000       Uiso       1.00
      C139          C  0.8091753  0.6413348  0.9857096    0.00000       Uiso       1.00
      C140          C  0.7987419  0.6444024  0.0088427    0.00000       Uiso       1.00
      C141          C  0.8103239  0.6423361  0.0182587    0.00000       Uiso       1.00
      C142          C  0.8328485  0.6370637  0.0036107    0.00000       Uiso       1.00
       H99          H  0.8423178  0.6350185  0.0102322    0.00000       Uiso       1.00
      H100          H  0.7814516  0.6487117  0.0194430    0.00000       Uiso       1.00
      C143          C  0.9390413  0.6573479  0.8218415    0.00000       Uiso       1.00
      C144          C  0.9577208  0.6477029  0.8009445    0.00000       Uiso       1.00
      C145          C  0.9361370  0.6745366  0.8299971    0.00000       Uiso       1.00
      C146          C  0.9519090  0.6819028  0.8173082    0.00000       Uiso       1.00
      C147          C  0.9708353  0.6724018  0.7963144    0.00000       Uiso       1.00
      C148          C  0.9734295  0.6551631  0.7884311    0.00000       Uiso       1.00
      H101          H  0.9874706  0.6477508  0.7723433    0.00000       Uiso       1.00
      H102          H  0.9495361  0.6948729  0.8240030    0.00000       Uiso       1.00
      C149          C  0.9180897  0.5287004  0.8639259    0.00000       Uiso       1.00
      C150          C  0.9062189  0.5196733  0.8661337    0.00000       Uiso       1.00
      C151          C  0.9405308  0.5144170  0.8586786    0.00000       Uiso       1.00
      C152          C  0.9509729  0.4912873  0.8555898    0.00000       Uiso       1.00
      C153          C  0.9393961  0.4818695  0.8576476    0.00000       Uiso       1.00
      C154          C  0.9168674  0.4965128  0.8629329    0.00000       Uiso       1.00
      H103          H  0.9074019  0.4898895  0.8649723    0.00000       Uiso       1.00
      H104          H  0.9682661  0.4806908  0.8512711    0.00000       Uiso       1.00
      C155          C  0.7894208  0.7071979  0.8693820    0.00000       Uiso       1.00
      C156          C  0.8051046  0.6947302  0.8766299    0.00000       Uiso       1.00
      C157          C  0.8322571  0.6493879  0.8160543    0.00000       Uiso       1.00
      C158          C  0.8478619  0.6368966  0.8233948    0.00000       Uiso       1.00
      C159          C  0.9173698  0.6840792  0.8507773    0.00000       Uiso       1.00
      C160          C  0.9017737  0.6767277  0.8632621    0.00000       Uiso       1.00
      C161          C  0.9520947  0.5236341  0.8566751    0.00000       Uiso       1.00
      C162          C  0.9416389  0.5465734  0.8597921    0.00000       Uiso       1.00
      C163          C  0.8837762  0.5340884  0.8716722    0.00000       Uiso       1.00
      C164          C  0.8733106  0.5570139  0.8748914    0.00000       Uiso       1.00
      H105          H  0.8742388  0.5276204  0.8735487    0.00000       Uiso       1.00
      H106          H  0.8560171  0.5675677  0.8791220    0.00000       Uiso       1.00
      H107          H  0.9693139  0.5130633  0.8526952    0.00000       Uiso       1.00
      H108          H  0.9511066  0.5530400  0.8580839    0.00000       Uiso       1.00
      H109          H  0.8620839  0.6209698  0.8156344    0.00000       Uiso       1.00
      H110          H  0.8349175  0.6427531  0.8028135    0.00000       Uiso       1.00
      H111          H  0.8026033  0.7014564  0.8896946    0.00000       Uiso       1.00
      H112          H  0.7752963  0.7231957  0.8770435    0.00000       Uiso       1.00
      H113          H  0.8875555  0.6844736  0.8791957    0.00000       Uiso       1.00
      H114          H  0.9147065  0.6973141  0.8574240    0.00000       Uiso       1.00
      C165          C  0.8394243  0.6610100  0.8747099    0.00000       Uiso       1.00
      C166          C  0.8576515  0.6393394  0.8662632    0.00000       Uiso       1.00
      C167          C  0.8606821  0.6321124  0.8482382    0.00000       Uiso       1.00
      C168          C  0.8451234  0.6447370  0.8405982    0.00000       Uiso       1.00
      C169          C  0.8264285  0.6655549  0.8503124    0.00000       Uiso       1.00
      C170          C  0.8236776  0.6737993  0.8673012    0.00000       Uiso       1.00
      H115          H  0.8373107  0.6678661  0.8873734    0.00000       Uiso       1.00
      H116          H  0.8752049  0.6165005  0.8401031    0.00000       Uiso       1.00
      C171          C  0.8631496  0.6280459  0.9009137    0.00000       Uiso       1.00
      C172          C  0.8750477  0.6245899  0.9106980    0.00000       Uiso       1.00
      C173          C  0.8409269  0.6322369  0.9158999    0.00000       Uiso       1.00
      C174          C  0.8303598  0.6351538  0.9390952    0.00000       Uiso       1.00
      C175          C  0.8422054  0.6330182  0.9480802    0.00000       Uiso       1.00
      C176          C  0.8646887  0.6275299  0.9338500    0.00000       Uiso       1.00
      H117          H  0.8924547  0.6198512  0.9001538    0.00000       Uiso       1.00
      H118          H  0.8316963  0.6333354  0.9095084    0.00000       Uiso       1.00
      C177          C  0.8920022  0.6338617  0.8607806    0.00000       Uiso       1.00
      C178          C  0.9102233  0.6254345  0.8391026    0.00000       Uiso       1.00
      C179          C  0.8889668  0.6518801  0.8680239    0.00000       Uiso       1.00
      C180          C  0.9045165  0.6595313  0.8554061    0.00000       Uiso       1.00
      C181          C  0.9232063  0.6498359  0.8345795    0.00000       Uiso       1.00
      C182          C  0.9259610  0.6328546  0.8263199    0.00000       Uiso       1.00
      H119          H  0.9123394  0.6127772  0.8322351    0.00000       Uiso       1.00
      H120          H  0.8744473  0.6600011  0.8836431    0.00000       Uiso       1.00
      C183          C  0.8865245  0.5992011  0.8720432    0.00000       Uiso       1.00
      C184          C  0.8746324  0.5894138  0.8754901    0.00000       Uiso       1.00
      C185          C  0.9087520  0.5842186  0.8678389    0.00000       Uiso       1.00
      C186          C  0.9193282  0.5610259  0.8649013    0.00000       Uiso       1.00
      C187          C  0.9074877  0.5520391  0.8670286    0.00000       Uiso       1.00
      C188          C  0.8850003  0.5662645  0.8725294    0.00000       Uiso       1.00
      H121          H  0.8572229  0.5999538  0.8802382    0.00000       Uiso       1.00
      H122          H  0.9179793  0.5906110  0.8667461    0.00000       Uiso       1.00
      C189          C  0.8763838  0.6251596  0.9430984    0.00000       Uiso       1.00
      C190          C  0.8659269  0.6283584  0.9660267    0.00000       Uiso       1.00
      C191          C  0.8080533  0.6402503  0.9535522    0.00000       Uiso       1.00
      C192          C  0.7976062  0.6433466  0.9764943    0.00000       Uiso       1.00
      C193          C  0.9445287  0.6235447  0.8053806    0.00000       Uiso       1.00
      C194          C  0.9602035  0.6308038  0.7929194    0.00000       Uiso       1.00
      H123          H  0.8754681  0.6264759  0.9724930    0.00000       Uiso       1.00
      H124          H  0.8936744  0.6209384  0.9325409    0.00000       Uiso       1.00
      H125          H  0.7985818  0.6419643  0.9470872    0.00000       Uiso       1.00
      H126          H  0.7803899  0.6473173  0.9870687    0.00000       Uiso       1.00
      H127          H  0.9470326  0.6104861  0.7986427    0.00000       Uiso       1.00
      H128          H  0.9743242  0.6231565  0.7769147    0.00000       Uiso       1.00
      C195          C  0.7501676  0.8749999  0.3748884    0.00000       Uiso       1.00
      C196          C  0.6452215  0.0511385  0.3440666    0.00000       Uiso       1.00
      C197          C  0.6578004  0.0431774  0.3545660    0.00000       Uiso       1.00
      C198          C  0.6572491  0.0586111  0.3627195    0.00000       Uiso       1.00
      C199          C  0.6445045  0.0817313  0.3601516    0.00000       Uiso       1.00
      C200          C  0.6321263  0.0896926  0.3494093    0.00000       Uiso       1.00
      C201          C  0.6325508  0.0742641  0.3413878    0.00000       Uiso       1.00
      H129          H  0.6450390  0.0396293  0.3379700    0.00000       Uiso       1.00
      H130          H  0.6666874  0.0527484  0.3710801    0.00000       Uiso       1.00
      C202          C  0.7297362  0.7827078  0.3193933    0.00000       Uiso       1.00
      C203          C  0.7192354  0.7701324  0.3345028    0.00000       Uiso       1.00
      C204          C  0.7378761  0.7821634  0.2963638    0.00000       Uiso       1.00
      C205          C  0.7352933  0.7694292  0.2885549    0.00000       Uiso       1.00
      C206          C  0.7245494  0.7570546  0.3037068    0.00000       Uiso       1.00
      C207          C  0.7165415  0.7574722  0.3267256    0.00000       Uiso       1.00
      H131          H  0.7131491  0.7699448  0.3522858    0.00000       Uiso       1.00
      H132          H  0.7462377  0.7915992  0.2844335    0.00000       Uiso       1.00
      C208          C  0.6947644  0.8545272  0.5430471    0.00000       Uiso       1.00
      C209          C  0.7098898  0.8440208  0.5509988    0.00000       Uiso       1.00
      C210          C  0.6717317  0.8626670  0.5584881    0.00000       Uiso       1.00
      C211          C  0.6639354  0.8600785  0.5816060    0.00000       Uiso       1.00
      C212          C  0.6791031  0.8493290  0.5895576    0.00000       Uiso       1.00
      C213          C  0.7021252  0.8413213  0.5741220    0.00000       Uiso       1.00
      H133          H  0.7276757  0.8379344  0.5394841    0.00000       Uiso       1.00
      H134          H  0.6597891  0.8710328  0.5526327    0.00000       Uiso       1.00
      C214          C  0.9183695  0.8195874  0.2825471    0.00000       Uiso       1.00
      C215          C  0.9263238  0.8347081  0.2699852    0.00000       Uiso       1.00
      C216          C  0.9338135  0.7965584  0.2819821    0.00000       Uiso       1.00
      C217          C  0.9569371  0.7887609  0.2692409    0.00000       Uiso       1.00
      C218          C  0.9648916  0.8039238  0.2568799    0.00000       Uiso       1.00
      C219          C  0.9494528  0.8269423  0.2573181    0.00000       Uiso       1.00
      H135          H  0.9148066  0.8524913  0.2698135    0.00000       Uiso       1.00
      H136          H  0.9279560  0.7846196  0.2914071    0.00000       Uiso       1.00
      C220          C  0.7442626  0.7692548  0.2634518    0.00000       Uiso       1.00
      H137          H  0.7413411  0.7600454  0.2607291    0.00000       Uiso       1.00
      H138          H  0.7371173  0.7839833  0.2586100    0.00000       Uiso       1.00
      H139          H  0.7598624  0.7636281  0.2555304    0.00000       Uiso       1.00
      C221          C  0.6388284  0.8690478  0.5979221    0.00000       Uiso       1.00
      H140          H  0.6361154  0.8661221  0.6127689    0.00000       Uiso       1.00
      H141          H  0.6309050  0.8846451  0.5958819    0.00000       Uiso       1.00
      H142          H  0.6339766  0.8619090  0.5951809    0.00000       Uiso       1.00
      C222          C  0.9575433  0.8438169  0.2439466    0.00000       Uiso       1.00
      H143          H  0.9733489  0.8362287  0.2363314    0.00000       Uiso       1.00
      H144          H  0.9525585  0.8511563  0.2334519    0.00000       Uiso       1.00
      H145          H  0.9517134  0.8544754  0.2538076    0.00000       Uiso       1.00
      C223          C  0.6191606  0.0823620  0.3298091    0.00000       Uiso       1.00
      H146          H  0.6115451  0.0981643  0.3292176    0.00000       Uiso       1.00
      H147          H  0.6290148  0.0765370  0.3151188    0.00000       Uiso       1.00
      H148          H  0.6086617  0.0773805  0.3379478    0.00000       Uiso       1.00
      C224          C  0.7049615  0.7440856  0.3435883    0.00000       Uiso       1.00
      H149          H  0.7043594  0.7364772  0.3359932    0.00000       Uiso       1.00
      H150          H  0.7131097  0.7335843  0.3509182    0.00000       Uiso       1.00
      H151          H  0.6902722  0.7539372  0.3542555    0.00000       Uiso       1.00
      C225          C  0.7190050  0.8297354  0.5822096    0.00000       Uiso       1.00
      H152          H  0.7114170  0.8291299  0.5980113    0.00000       Uiso       1.00
      H153          H  0.7296700  0.8150504  0.5763714    0.00000       Uiso       1.00
      H154          H  0.7263408  0.8378787  0.5772353    0.00000       Uiso       1.00
      C226          C  0.9732565  0.7636579  0.2690441    0.00000       Uiso       1.00
      H155          H  0.9881071  0.7609435  0.2598324    0.00000       Uiso       1.00
      H156          H  0.9705240  0.7588030  0.2837683    0.00000       Uiso       1.00
      H157          H  0.9712059  0.7557414  0.2634103    0.00000       Uiso       1.00
      C227          C  0.6443229  0.0980395  0.3691355    0.00000       Uiso       1.00
      H158          H  0.6351068  0.1128889  0.3662231    0.00000       Uiso       1.00
      H159          H  0.6386970  0.0959853  0.3847310    0.00000       Uiso       1.00
      H160          H  0.6590525  0.0953047  0.3619944    0.00000       Uiso       1.00
      C228          C  0.6760646  0.9804466  0.3661163    0.00000       Uiso       1.00
      C229          C  0.6969657  0.9714213  0.3639002    0.00000       Uiso       1.00
      C230          C  0.7051148  0.9857094  0.3586656    0.00000       Uiso       1.00
      C231          C  0.6924155  0.0088423  0.3555975    0.00000       Uiso       1.00
      C232          C  0.6714175  0.0182583  0.3576638    0.00000       Uiso       1.00
      C233          C  0.6635408  0.0036103  0.3629361    0.00000       Uiso       1.00
      H161          H  0.6474501  0.0102318  0.3649814    0.00000       Uiso       1.00
      H162          H  0.6991055  0.0194426  0.3512881    0.00000       Uiso       1.00
      C234          C  0.7391170  0.8218411  0.3426524    0.00000       Uiso       1.00
      C235          C  0.7413344  0.8009441  0.3522975    0.00000       Uiso       1.00
      C236          C  0.7338660  0.8299966  0.3254635    0.00000       Uiso       1.00
      C237          C  0.7307829  0.8173076  0.3180974    0.00000       Uiso       1.00
      C238          C  0.7328501  0.7963138  0.3275986    0.00000       Uiso       1.00
      C239          C  0.7381390  0.7884306  0.3448373    0.00000       Uiso       1.00
      H163          H  0.7401857  0.7723429  0.3522498    0.00000       Uiso       1.00
      H164          H  0.7264610  0.8240023  0.3051272    0.00000       Uiso       1.00
      C240          C  0.7179843  0.8639256  0.4712999    0.00000       Uiso       1.00
      C241          C  0.7276469  0.8661337  0.4803271    0.00000       Uiso       1.00
      C242          C  0.7007905  0.8586779  0.4855832    0.00000       Uiso       1.00
      C243          C  0.6934372  0.8555892  0.5087129    0.00000       Uiso       1.00
      C244          C  0.7029561  0.8576473  0.5181308    0.00000       Uiso       1.00
      C245          C  0.7201993  0.8629329  0.5034875    0.00000       Uiso       1.00
      H165          H  0.7276251  0.8649725  0.5101109    0.00000       Uiso       1.00
      H166          H  0.6804630  0.8512702  0.5193093    0.00000       Uiso       1.00
      C246          C  0.8466035  0.8428115  0.3217010    0.00000       Uiso       1.00
      C247          C  0.8556243  0.8524753  0.3008127    0.00000       Uiso       1.00
      C248          C  0.8608993  0.8256153  0.3298411    0.00000       Uiso       1.00
      C249          C  0.8840350  0.8182605  0.3171456    0.00000       Uiso       1.00
      C250          C  0.8934467  0.8277805  0.2961604    0.00000       Uiso       1.00
      C251          C  0.8787909  0.8450264  0.2882926    0.00000       Uiso       1.00
      H167          H  0.8854091  0.8524532  0.2722116    0.00000       Uiso       1.00
      H168          H  0.8946411  0.8052843  0.3238287    0.00000       Uiso       1.00
      C252          C  0.6680461  0.9660265  0.3716419    0.00000       Uiso       1.00
      C253          C  0.6805176  0.9430981  0.3748407    0.00000       Uiso       1.00
      C254          C  0.7258991  0.9764941  0.3566537    0.00000       Uiso       1.00
      C255          C  0.7383942  0.9535520  0.3597502    0.00000       Uiso       1.00
      C256          C  0.6912304  0.8566741  0.4763661    0.00000       Uiso       1.00
      C257          C  0.6985694  0.8597910  0.4534268    0.00000       Uiso       1.00
      C258          C  0.8516882  0.8160539  0.3506126    0.00000       Uiso       1.00
      C259          C  0.8287429  0.8233944  0.3631039    0.00000       Uiso       1.00
      C260          C  0.8411967  0.8693820  0.2928028    0.00000       Uiso       1.00
      C261          C  0.8182650  0.8766299  0.3052705    0.00000       Uiso       1.00
      H169          H  0.8476595  0.8770437  0.2768051    0.00000       Uiso       1.00
      H170          H  0.8077016  0.8896947  0.2985444    0.00000       Uiso       1.00
      H171          H  0.8622686  0.8028131  0.3572474    0.00000       Uiso       1.00
      H172          H  0.8222813  0.8156340  0.3790305    0.00000       Uiso       1.00
      H173          H  0.7543306  0.9470870  0.3580362    0.00000       Uiso       1.00
      H174          H  0.7325410  0.9870685  0.3526831    0.00000       Uiso       1.00
      H175          H  0.6737844  0.9325406  0.3790619    0.00000       Uiso       1.00
      H176          H  0.6520386  0.9724928  0.3735245    0.00000       Uiso       1.00
      H177          H  0.6908099  0.8580827  0.4469602    0.00000       Uiso       1.00
      H178          H  0.6779913  0.8526939  0.4869369    0.00000       Uiso       1.00
      C262          C  0.7142540  0.9106977  0.3754103    0.00000       Uiso       1.00
      C263          C  0.7359364  0.9009135  0.3719545    0.00000       Uiso       1.00
      C264          C  0.7431728  0.9158998  0.3677636    0.00000       Uiso       1.00
      C265          C  0.7305447  0.9390950  0.3648466    0.00000       Uiso       1.00
      C266          C  0.7097142  0.9480800  0.3669821    0.00000       Uiso       1.00
      C267          C  0.7014610  0.9338498  0.3724703    0.00000       Uiso       1.00
      H179          H  0.7073913  0.9001535  0.3801490    0.00000       Uiso       1.00
      H180          H  0.7587949  0.9095082  0.3666652    0.00000       Uiso       1.00
      C268          C  0.7472169  0.8607802  0.3661387    0.00000       Uiso       1.00
      C269          C  0.7506738  0.8391023  0.3745660    0.00000       Uiso       1.00
      C270          C  0.7430093  0.8680235  0.3481201    0.00000       Uiso       1.00
      C271          C  0.7400773  0.8554057  0.3404689    0.00000       Uiso       1.00
      C272          C  0.7422141  0.8345791  0.3501644    0.00000       Uiso       1.00
      C273          C  0.7477188  0.8263195  0.3671459    0.00000       Uiso       1.00
      H181          H  0.7554250  0.8322348  0.3872233    0.00000       Uiso       1.00
      H182          H  0.7419094  0.8836427  0.3399991    0.00000       Uiso       1.00
      C274          C  0.7414320  0.8720429  0.4007992    0.00000       Uiso       1.00
      C275          C  0.7498771  0.8754901  0.4105866    0.00000       Uiso       1.00
      C276          C  0.7234089  0.8678383  0.4157818    0.00000       Uiso       1.00
      C277          C  0.7157705  0.8649006  0.4389744    0.00000       Uiso       1.00
      C278          C  0.7254834  0.8670284  0.4479613    0.00000       Uiso       1.00
      C279          C  0.7424697  0.8725294  0.4337360    0.00000       Uiso       1.00
      H183          H  0.7625383  0.8802384  0.4000467    0.00000       Uiso       1.00
      H184          H  0.7152746  0.8667454  0.4093893    0.00000       Uiso       1.00
      C280          C  0.7760850  0.8662630  0.3606610    0.00000       Uiso       1.00
      C281          C  0.7858655  0.8747097  0.3389906    0.00000       Uiso       1.00
      C282          C  0.7910793  0.8482379  0.3678881    0.00000       Uiso       1.00
      C283          C  0.8142781  0.8405979  0.3552635    0.00000       Uiso       1.00
      C284          C  0.8232588  0.8503121  0.3344457    0.00000       Uiso       1.00
      C285          C  0.8090208  0.8673010  0.3262013    0.00000       Uiso       1.00
      H185          H  0.7753156  0.8873732  0.3321345    0.00000       Uiso       1.00
      H186          H  0.7846916  0.8401029  0.3835000    0.00000       Uiso       1.00
      C286          C  0.7500902  0.8053802  0.3764559    0.00000       Uiso       1.00
      C287          C  0.7468765  0.7929191  0.3691969    0.00000       Uiso       1.00
      C288          C  0.7349644  0.8632615  0.3232725    0.00000       Uiso       1.00
      C289          C  0.7318532  0.8507767  0.3159208    0.00000       Uiso       1.00
      C290          C  0.7517973  0.8748918  0.4429866    0.00000       Uiso       1.00
      C291          C  0.7445508  0.8716725  0.4659121    0.00000       Uiso       1.00
      H187          H  0.7487604  0.7769145  0.3768442    0.00000       Uiso       1.00
      H188          H  0.7543240  0.7986425  0.3895146    0.00000       Uiso       1.00
      H189          H  0.7332489  0.8791952  0.3155264    0.00000       Uiso       1.00
      H190          H  0.7278700  0.8574233  0.3026859    0.00000       Uiso       1.00
      H191          H  0.7648600  0.8791226  0.4324328    0.00000       Uiso       1.00
      H192          H  0.7522115  0.8735495  0.4723801    0.00000       Uiso       1.00
      C292          C  0.3749442  0.3748880  0.1249996    0.00000       Uiso       1.00
      C293          C  0.3036914  0.2699846  0.1652912    0.00000       Uiso       1.00
      C294          C  0.2990839  0.2825465  0.1804119    0.00000       Uiso       1.00
      C295          C  0.2842049  0.2819814  0.2034409    0.00000       Uiso       1.00
      C296          C  0.2738224  0.2692403  0.2112384    0.00000       Uiso       1.00
      C297          C  0.2782290  0.2568792  0.1960755    0.00000       Uiso       1.00
      C298          C  0.2932296  0.2573174  0.1730570    0.00000       Uiso       1.00
      H193          H  0.3153803  0.2698129  0.1475080    0.00000       Uiso       1.00
      H194          H  0.2806373  0.2914065  0.2153797    0.00000       Uiso       1.00
      C299          C  0.4876337  0.3545663  0.9568222    0.00000       Uiso       1.00
      C300          C  0.5107120  0.3440669  0.9488610    0.00000       Uiso       1.00
      C301          C  0.4800315  0.3627198  0.9413884    0.00000       Uiso       1.00
      C302          C  0.4953439  0.3601519  0.9182682    0.00000       Uiso       1.00
      C303          C  0.5184644  0.3494096  0.9103070    0.00000       Uiso       1.00
      C304          C  0.5260614  0.3413881  0.9257355    0.00000       Uiso       1.00
      H195          H  0.5169911  0.3379703  0.9603703    0.00000       Uiso       1.00
      H196          H  0.4622325  0.3710804  0.9472511    0.00000       Uiso       1.00
      C305          C  0.4508706  0.3193931  0.2172918    0.00000       Uiso       1.00
      C306          C  0.4462620  0.3345026  0.2298671    0.00000       Uiso       1.00
      C307          C  0.4657601  0.2963636  0.2178362    0.00000       Uiso       1.00
      C308          C  0.4761519  0.2885547  0.2305704    0.00000       Uiso       1.00
      C309          C  0.4717440  0.3037065  0.2429450    0.00000       Uiso       1.00
      C310          C  0.4567329  0.3267254  0.2425274    0.00000       Uiso       1.00
      H197          H  0.4345652  0.3522856  0.2300547    0.00000       Uiso       1.00
      H198          H  0.4693289  0.2844332  0.2084005    0.00000       Uiso       1.00
      C311          C  0.2621886  0.5430470  0.1454721    0.00000       Uiso       1.00
      C312          C  0.2391115  0.5509987  0.1559785    0.00000       Uiso       1.00
      C313          C  0.2697803  0.5584880  0.1373324    0.00000       Uiso       1.00
      C314          C  0.2544588  0.5816059  0.1399209    0.00000       Uiso       1.00
      C315          C  0.2313395  0.5895575  0.1506703    0.00000       Uiso       1.00
      C316          C  0.2237530  0.5741218  0.1586780    0.00000       Uiso       1.00
      H199          H  0.2328404  0.5394840  0.1620649    0.00000       Uiso       1.00
      H200          H  0.2875781  0.5526327  0.1289666    0.00000       Uiso       1.00
      C317          C  0.4865417  0.3691358  0.9019600    0.00000       Uiso       1.00
      H201          H  0.4986701  0.3662234  0.8871107    0.00000       Uiso       1.00
      H202          H  0.4789533  0.3619945  0.9046948    0.00000       Uiso       1.00
      H203          H  0.4765721  0.3847313  0.9040142    0.00000       Uiso       1.00
      C318          C  0.4922857  0.2634515  0.2307448    0.00000       Uiso       1.00
      H204          H  0.4979299  0.2607289  0.2399542    0.00000       Uiso       1.00
      H205          H  0.4846072  0.2555301  0.2363716    0.00000       Uiso       1.00
      H206          H  0.5042728  0.2586097  0.2160164    0.00000       Uiso       1.00
      C319          C  0.1987856  0.5822095  0.1702639    0.00000       Uiso       1.00
      H207          H  0.1905719  0.5980111  0.1708694    0.00000       Uiso       1.00
      H208          H  0.1964241  0.5772352  0.1621205    0.00000       Uiso       1.00
      H209          H  0.1939588  0.5763713  0.1849488    0.00000       Uiso       1.00
      C320          C  0.2985106  0.2439459  0.1561824    0.00000       Uiso       1.00
      H210          H  0.2903202  0.2363306  0.1637706    0.00000       Uiso       1.00
      H211          H  0.2944793  0.2538070  0.1455239    0.00000       Uiso       1.00
      H212          H  0.3139901  0.2334512  0.1488430    0.00000       Uiso       1.00
      C321          C  0.5510303  0.3298094  0.9176376    0.00000       Uiso       1.00
      H213          H  0.5592372  0.3292180  0.9018354    0.00000       Uiso       1.00
      H214          H  0.5533904  0.3379484  0.9226192    0.00000       Uiso       1.00
      H215          H  0.5558664  0.3151192  0.9234627    0.00000       Uiso       1.00
      C322          C  0.4514503  0.3435881  0.2559140    0.00000       Uiso       1.00
      H216          H  0.4596475  0.3359931  0.2635224    0.00000       Uiso       1.00
      H217          H  0.4554725  0.3542553  0.2460624    0.00000       Uiso       1.00
      H218          H  0.4359722  0.3509181  0.2664151    0.00000       Uiso       1.00
      C323          C  0.2632496  0.5979221  0.1309517    0.00000       Uiso       1.00
      H219          H  0.2511159  0.6127689  0.1338773    0.00000       Uiso       1.00
      H220          H  0.2708425  0.5951809  0.1380905    0.00000       Uiso       1.00
      H221          H  0.2732132  0.5958818  0.1153544    0.00000       Uiso       1.00
      C324          C  0.2576998  0.2690434  0.2363413    0.00000       Uiso       1.00
      H222          H  0.2520610  0.2598316  0.2390557    0.00000       Uiso       1.00
      H223          H  0.2653844  0.2634096  0.2442577    0.00000       Uiso       1.00
      H224          H  0.2457083  0.2837676  0.2411963    0.00000       Uiso       1.00
      C325          C  0.3435634  0.3008121  0.1475241    0.00000       Uiso       1.00
      C326          C  0.3316959  0.3217005  0.1571879    0.00000       Uiso       1.00
      C327          C  0.3092600  0.3298406  0.1743840    0.00000       Uiso       1.00
      C328          C  0.2988198  0.3171451  0.1817387    0.00000       Uiso       1.00
      C329          C  0.3103933  0.2961598  0.1722188    0.00000       Uiso       1.00
      C330          C  0.3329169  0.2882920  0.1549731    0.00000       Uiso       1.00
      H225          H  0.3423798  0.2722108  0.1475463    0.00000       Uiso       1.00
      H226          H  0.2815305  0.3238283  0.1947149    0.00000       Uiso       1.00
      C331          C  0.4391341  0.3639000  0.0285783    0.00000       Uiso       1.00
      C332          C  0.4578190  0.3661160  0.0195531    0.00000       Uiso       1.00
      C333          C  0.4362196  0.3586653  0.0142902    0.00000       Uiso       1.00
      C334          C  0.4519871  0.3555977  0.9911571    0.00000       Uiso       1.00
      C335          C  0.4709188  0.3576640  0.9817412    0.00000       Uiso       1.00
      C336          C  0.4735231  0.3629363  0.9963892    0.00000       Uiso       1.00
      H227          H  0.4875686  0.3649817  0.9897677    0.00000       Uiso       1.00
      H228          H  0.4496065  0.3512884  0.9805568    0.00000       Uiso       1.00
      C337          C  0.4182307  0.3426522  0.1781585    0.00000       Uiso       1.00
      C338          C  0.4063682  0.3522972  0.1990556    0.00000       Uiso       1.00
      C339          C  0.4406707  0.3254634  0.1700029    0.00000       Uiso       1.00
      C340          C  0.4511199  0.3180973  0.1826919    0.00000       Uiso       1.00
      C341          C  0.4395514  0.3275983  0.2036857    0.00000       Uiso       1.00
      C342          C  0.4170237  0.3448370  0.2115690    0.00000       Uiso       1.00
      H229          H  0.4075646  0.3522493  0.2276568    0.00000       Uiso       1.00
      H230          H  0.4684120  0.3051272  0.1759972    0.00000       Uiso       1.00
      C343          C  0.3107160  0.4712997  0.1360739    0.00000       Uiso       1.00
      C344          C  0.2920260  0.4803268  0.1338659    0.00000       Uiso       1.00
      C345          C  0.3136265  0.4855831  0.1413212    0.00000       Uiso       1.00
      C346          C  0.2978502  0.5087128  0.1444100    0.00000       Uiso       1.00
      C347          C  0.2789133  0.5181307  0.1423521    0.00000       Uiso       1.00
      C348          C  0.2763131  0.5034873  0.1370668    0.00000       Uiso       1.00
      H231          H  0.2622638  0.5101106  0.1350274    0.00000       Uiso       1.00
      H232          H  0.3002280  0.5193093  0.1487287    0.00000       Uiso       1.00
      C349          C  0.3660009  0.2928022  0.1306177    0.00000       Uiso       1.00
      C350          C  0.3764648  0.3052699  0.1233698    0.00000       Uiso       1.00
      C351          C  0.2976995  0.3506122  0.1839452    0.00000       Uiso       1.00
      C352          C  0.3081535  0.3631035  0.1766049    0.00000       Uiso       1.00
      C353          C  0.4522262  0.3159209  0.1492227    0.00000       Uiso       1.00
      C354          C  0.4417633  0.3232725  0.1367379    0.00000       Uiso       1.00
      C355          C  0.3324040  0.4763660  0.1433247    0.00000       Uiso       1.00
      C356          C  0.3480043  0.4534267  0.1402079    0.00000       Uiso       1.00
      C357          C  0.2895370  0.4659117  0.1283275    0.00000       Uiso       1.00
      C358          C  0.3052160  0.4429862  0.1251083    0.00000       Uiso       1.00
      H233          H  0.2754082  0.4723796  0.1264508    0.00000       Uiso       1.00
      H234          H  0.3027069  0.4324324  0.1208777    0.00000       Uiso       1.00
      H235          H  0.3350723  0.4869368  0.1473048    0.00000       Uiso       1.00
      H236          H  0.3622304  0.4469601  0.1419161    0.00000       Uiso       1.00
      H237          H  0.2986884  0.3790302  0.1843652    0.00000       Uiso       1.00
      H238          H  0.2804844  0.3572470  0.1971861    0.00000       Uiso       1.00
      H239          H  0.3937543  0.2985437  0.1103051    0.00000       Uiso       1.00
      H240          H  0.3755359  0.2768044  0.1229561    0.00000       Uiso       1.00
      H241          H  0.4512249  0.3155265  0.1208043    0.00000       Uiso       1.00
      H242          H  0.4694443  0.3026860  0.1425761    0.00000       Uiso       1.00
      C359          C  0.3751441  0.3389902  0.1252899    0.00000       Uiso       1.00
      C360          C  0.3632541  0.3606606  0.1337366    0.00000       Uiso       1.00
      C361          C  0.3410328  0.3678876  0.1517616    0.00000       Uiso       1.00
      C362          C  0.3304587  0.3552631  0.1594014    0.00000       Uiso       1.00
      C363          C  0.3422959  0.3344452  0.1496873    0.00000       Uiso       1.00
      C364          C  0.3647781  0.3262008  0.1326985    0.00000       Uiso       1.00
      H243          H  0.3925501  0.3321341  0.1126264    0.00000       Uiso       1.00
      H244          H  0.3318087  0.3834996  0.1598966    0.00000       Uiso       1.00
      C365          C  0.3921092  0.3719542  0.0990861    0.00000       Uiso       1.00
      C366          C  0.4103357  0.3754101  0.0893019    0.00000       Uiso       1.00
      C367          C  0.3890637  0.3677632  0.0840998    0.00000       Uiso       1.00
      C368          C  0.4046087  0.3648463  0.0609046    0.00000       Uiso       1.00
      C369          C  0.4233038  0.3669819  0.0519196    0.00000       Uiso       1.00
      C370          C  0.4260687  0.3724701  0.0661499    0.00000       Uiso       1.00
      H245          H  0.4124597  0.3801489  0.0998461    0.00000       Uiso       1.00
      H246          H  0.3745402  0.3666647  0.0904913    0.00000       Uiso       1.00
      C371          C  0.3866445  0.3661384  0.1392192    0.00000       Uiso       1.00
      C372          C  0.3747604  0.3745656  0.1608973    0.00000       Uiso       1.00
      C373          C  0.4088707  0.3481199  0.1319761    0.00000       Uiso       1.00
      C374          C  0.4194539  0.3404688  0.1445938    0.00000       Uiso       1.00
      C375          C  0.4076216  0.3501642  0.1654204    0.00000       Uiso       1.00
      C376          C  0.3851354  0.3671455  0.1736800    0.00000       Uiso       1.00
      H247          H  0.3573518  0.3872229  0.1677647    0.00000       Uiso       1.00
      H248          H  0.4180916  0.3399990  0.1163568    0.00000       Uiso       1.00
      C377          C  0.3577689  0.4007990  0.1279567    0.00000       Uiso       1.00
      C378          C  0.3395363  0.4105863  0.1245096    0.00000       Uiso       1.00
      C379          C  0.3608095  0.4157815  0.1321610    0.00000       Uiso       1.00
      C380          C  0.3452555  0.4389742  0.1350986    0.00000       Uiso       1.00
      C381          C  0.3265554  0.4479611  0.1329712    0.00000       Uiso       1.00
      C382          C  0.3237943  0.4337357  0.1274703    0.00000       Uiso       1.00
      H249          H  0.3374149  0.4000463  0.1197615    0.00000       Uiso       1.00
      H250          H  0.3753365  0.4093890  0.1332538    0.00000       Uiso       1.00
      C383          C  0.4446418  0.3748405  0.0569015    0.00000       Uiso       1.00
      C384          C  0.4603119  0.3716417  0.0339732    0.00000       Uiso       1.00
      C385          C  0.4018558  0.3597498  0.0464475    0.00000       Uiso       1.00
      C386          C  0.4174472  0.3566535  0.0235054    0.00000       Uiso       1.00
      C387          C  0.3734539  0.3764554  0.1946194    0.00000       Uiso       1.00
      C388          C  0.3839266  0.3691964  0.2070806    0.00000       Uiso       1.00
      H251          H  0.4744370  0.3735242  0.0275070    0.00000       Uiso       1.00
      H252          H  0.4471536  0.3790617  0.0674591    0.00000       Uiso       1.00
      H253          H  0.3876333  0.3580358  0.0529125    0.00000       Uiso       1.00
      H254          H  0.4147759  0.3526828  0.0129311    0.00000       Uiso       1.00
      H255          H  0.3561615  0.3895140  0.2013572    0.00000       Uiso       1.00
      H256          H  0.3743954  0.3768436  0.2230853    0.00000       Uiso       1.00
      C389          C  0.0000557  0.1250002  0.6251124    0.00000       Uiso       1.00
      C390          C  0.0404261  0.9488615  0.6559340    0.00000       Uiso       1.00
      C391          C  0.0555433  0.9568227  0.6454347    0.00000       Uiso       1.00
      C392          C  0.0785792  0.9413890  0.6372812    0.00000       Uiso       1.00
      C393          C  0.0863871  0.9182687  0.6398491    0.00000       Uiso       1.00
      C394          C  0.0712278  0.9103075  0.6505914    0.00000       Uiso       1.00
      C395          C  0.0482023  0.9257360  0.6586128    0.00000       Uiso       1.00
      H257          H  0.0226378  0.9603708  0.6620306    0.00000       Uiso       1.00
      H258          H  0.0905154  0.9472517  0.6289206    0.00000       Uiso       1.00
      C396          C  0.8318373  0.2172922  0.6806070    0.00000       Uiso       1.00
      C397          C  0.8238705  0.2298676  0.6654975    0.00000       Uiso       1.00
      C398          C  0.8164033  0.2178367  0.7036365    0.00000       Uiso       1.00
      C399          C  0.7932774  0.2305709  0.7114454    0.00000       Uiso       1.00
      C400          C  0.7853106  0.2429455  0.6962935    0.00000       Uiso       1.00
      C401          C  0.8007393  0.2425279  0.6732748    0.00000       Uiso       1.00
      H259          H  0.8353797  0.2300552  0.6477146    0.00000       Uiso       1.00
      H260          H  0.8222703  0.2084009  0.7155669    0.00000       Uiso       1.00
      C402          C  0.0923385  0.1454728  0.4569537    0.00000       Uiso       1.00
      C403          C  0.1049091  0.1559793  0.4490020    0.00000       Uiso       1.00
      C404          C  0.0928865  0.1373331  0.4415127    0.00000       Uiso       1.00
      C405          C  0.1056196  0.1399216  0.4183948    0.00000       Uiso       1.00
      C406          C  0.1179894  0.1506711  0.4104433    0.00000       Uiso       1.00
      C407          C  0.1175682  0.1586787  0.4258789    0.00000       Uiso       1.00
      H261          H  0.1050940  0.1620656  0.4605168    0.00000       Uiso       1.00
      H262          H  0.0834545  0.1289672  0.4473680    0.00000       Uiso       1.00
      C408          C  0.0205036  0.1804127  0.7174540    0.00000       Uiso       1.00
      C409          C  0.0310168  0.1652919  0.7300159    0.00000       Uiso       1.00
      C410          C  0.0123536  0.2034416  0.7180190    0.00000       Uiso       1.00
      C411          C  0.0149386  0.2112392  0.7307602    0.00000       Uiso       1.00
      C412          C  0.0256949  0.1960763  0.7431213    0.00000       Uiso       1.00
      C413          C  0.0337128  0.1730578  0.7426831    0.00000       Uiso       1.00
      H263          H  0.0371111  0.1475088  0.7301875    0.00000       Uiso       1.00
      H264          H  0.0039824  0.2153805  0.7085940    0.00000       Uiso       1.00
      C414          C  0.7769691  0.2307453  0.7365485    0.00000       Uiso       1.00
      H265          H  0.7621156  0.2399547  0.7392711    0.00000       Uiso       1.00
      H266          H  0.7797105  0.2160168  0.7413903    0.00000       Uiso       1.00
      H267          H  0.7790208  0.2363720  0.7444700    0.00000       Uiso       1.00
      C415          C  0.1057980  0.1309523  0.4020786    0.00000       Uiso       1.00
      H268          H  0.1150060  0.1338780  0.3872319    0.00000       Uiso       1.00
      H269          H  0.1114317  0.1153550  0.4041189    0.00000       Uiso       1.00
      H270          H  0.0910663  0.1380910  0.4048198    0.00000       Uiso       1.00
      C416          C  0.0453063  0.1561832  0.7560546    0.00000       Uiso       1.00
      H271          H  0.0459085  0.1637714  0.7636698    0.00000       Uiso       1.00
      H272          H  0.0371662  0.1488438  0.7665493    0.00000       Uiso       1.00
      H273          H  0.0599961  0.1455247  0.7461936    0.00000       Uiso       1.00
      C417          C  0.0313314  0.9176381  0.6701915    0.00000       Uiso       1.00
      H274          H  0.0389266  0.9018359  0.6707829    0.00000       Uiso       1.00
      H275          H  0.0206703  0.9234631  0.6848817    0.00000       Uiso       1.00
      H276          H  0.0239897  0.9226196  0.6620526    0.00000       Uiso       1.00
      C418          C  0.7926353  0.2559145  0.6564120    0.00000       Uiso       1.00
      H277          H  0.7768298  0.2635229  0.6640070    0.00000       Uiso       1.00
      H278          H  0.7976122  0.2664157  0.6490821    0.00000       Uiso       1.00
      H279          H  0.7984648  0.2460629  0.6457447    0.00000       Uiso       1.00
      C419          C  0.1309496  0.1702647  0.4177914    0.00000       Uiso       1.00
      H280          H  0.1385578  0.1708702  0.4019897    0.00000       Uiso       1.00
      H281          H  0.1210914  0.1849497  0.4236295    0.00000       Uiso       1.00
      H282          H  0.1414545  0.1621214  0.4227656    0.00000       Uiso       1.00
      C420          C  0.0059582  0.2363422  0.7309571    0.00000       Uiso       1.00
      H283          H  0.0088826  0.2390566  0.7401689    0.00000       Uiso       1.00
      H284          H  0.0130948  0.2411971  0.7162329    0.00000       Uiso       1.00
      H285          H  0.9903572  0.2442586  0.7365908    0.00000       Uiso       1.00
      C421          C  0.1114974  0.9019605  0.6308653    0.00000       Uiso       1.00
      H286          H  0.1142184  0.8871111  0.6337776    0.00000       Uiso       1.00
      H287          H  0.1194129  0.9040147  0.6152697    0.00000       Uiso       1.00
      H288          H  0.1163511  0.9046953  0.6380064    0.00000       Uiso       1.00
      C422          C  0.0226274  0.0195535  0.6338844    0.00000       Uiso       1.00
      C423          C  0.0322871  0.0285787  0.6361005    0.00000       Uiso       1.00
      C424          C  0.0494896  0.0142906  0.6413352    0.00000       Uiso       1.00
      C425          C  0.0568548  0.9911578  0.6444033    0.00000       Uiso       1.00
      C426          C  0.0473391  0.9817417  0.6423370    0.00000       Uiso       1.00
      C427          C  0.0300868  0.9963898  0.6370646    0.00000       Uiso       1.00
      H289          H  0.0226629  0.9897683  0.6350192    0.00000       Uiso       1.00
      H290          H  0.0698358  0.9805574  0.6487127    0.00000       Uiso       1.00
      C428          C  0.9036103  0.1781590  0.6573482    0.00000       Uiso       1.00
      C429          C  0.8945758  0.1990560  0.6477030    0.00000       Uiso       1.00
      C430          C  0.8893259  0.1700035  0.6745370    0.00000       Uiso       1.00
      C431          C  0.8661878  0.1826925  0.6819030    0.00000       Uiso       1.00
      C432          C  0.8567623  0.2036863  0.6724019    0.00000       Uiso       1.00
      C433          C  0.8714069  0.2115694  0.6551632    0.00000       Uiso       1.00
      H291          H  0.8647782  0.2276572  0.6477507    0.00000       Uiso       1.00
      H292          H  0.8555905  0.1759977  0.6948732    0.00000       Uiso       1.00
      C434          C  0.0532095  0.1360745  0.5287009    0.00000       Uiso       1.00
      C435          C  0.0741076  0.1338663  0.5196737    0.00000       Uiso       1.00
      C436          C  0.0450515  0.1413221  0.5144175    0.00000       Uiso       1.00
      C437          C  0.0577391  0.1444108  0.4912878    0.00000       Uiso       1.00
      C438          C  0.0787339  0.1423528  0.4818700    0.00000       Uiso       1.00
      C439          C  0.0866195  0.1370672  0.4965133    0.00000       Uiso       1.00
      H293          H  0.1027083  0.1350276  0.4898899    0.00000       Uiso       1.00
      H294          H  0.0510424  0.1487298  0.4806914    0.00000       Uiso       1.00
      C440          C  0.0111157  0.1571885  0.6783000    0.00000       Uiso       1.00
      C441          C  0.0089121  0.1475247  0.6991882    0.00000       Uiso       1.00
      C442          C  0.0163553  0.1743848  0.6701599    0.00000       Uiso       1.00
      C443          C  0.0194408  0.1817395  0.6828554    0.00000       Uiso       1.00
      C444          C  0.0173873  0.1722196  0.7038407    0.00000       Uiso       1.00
      C445          C  0.0121096  0.1549737  0.7117084    0.00000       Uiso       1.00
      H295          H  0.0100736  0.1475468  0.7277895    0.00000       Uiso       1.00
      H296          H  0.0237538  0.1947158  0.6761724    0.00000       Uiso       1.00
      C446          C  0.0057144  0.0339736  0.6283587    0.00000       Uiso       1.00
      C447          C  0.9984562  0.0569019  0.6251599    0.00000       Uiso       1.00
      C448          C  0.0590468  0.0235059  0.6433470    0.00000       Uiso       1.00
      C449          C  0.0516962  0.0464480  0.6402506    0.00000       Uiso       1.00
      C450          C  0.0242704  0.1433259  0.5236346    0.00000       Uiso       1.00
      C451          C  0.0117870  0.1402090  0.5465739    0.00000       Uiso       1.00
      C452          C  0.0183545  0.1839461  0.6493884    0.00000       Uiso       1.00
      C453          C  0.0152409  0.1766057  0.6368970    0.00000       Uiso       1.00
      C454          C  0.0033812  0.1306181  0.7071981    0.00000       Uiso       1.00
      C455          C  0.0001652  0.1233702  0.6947304    0.00000       Uiso       1.00
      H297          H  0.0015080  0.1229564  0.7231959    0.00000       Uiso       1.00
      H298          H  0.9959403  0.1103054  0.7014564    0.00000       Uiso       1.00
      H299          H  0.0223286  0.1971870  0.6427537    0.00000       Uiso       1.00
      H300          H  0.0169456  0.1843660  0.6209704    0.00000       Uiso       1.00
      H301          H  0.0594536  0.0529131  0.6419647    0.00000       Uiso       1.00
      H302          H  0.0722924  0.0129315  0.6473178    0.00000       Uiso       1.00
      H303          H  0.9853868  0.0674595  0.6209386    0.00000       Uiso       1.00
      H304          H  0.9980556  0.0275073  0.6264760    0.00000       Uiso       1.00
      H305          H  0.9958525  0.1419174  0.5530404    0.00000       Uiso       1.00
      H306          H  0.0176219  0.1473062  0.5130638    0.00000       Uiso       1.00
      C456          C  0.0003619  0.0893024  0.6245903    0.00000       Uiso       1.00
      C457          C  0.0088042  0.0990866  0.6280462    0.00000       Uiso       1.00
      C458          C  0.0268360  0.0841003  0.6322372    0.00000       Uiso       1.00
      C459          C  0.0344862  0.0609051  0.6351541    0.00000       Uiso       1.00
      C460          C  0.0247761  0.0519201  0.6330186    0.00000       Uiso       1.00
      C461          C  0.0077809  0.0661504  0.6275303    0.00000       Uiso       1.00
      H307          H  0.9876935  0.0998466  0.6198516    0.00000       Uiso       1.00
      H308          H  0.0349681  0.0904918  0.6333357    0.00000       Uiso       1.00
      C462          C  0.9741356  0.1392198  0.6338620    0.00000       Uiso       1.00
      C463          C  0.9643417  0.1608978  0.6254348    0.00000       Uiso       1.00
      C464          C  0.9591526  0.1319766  0.6518805    0.00000       Uiso       1.00
      C465          C  0.9359517  0.1445944  0.6595317    0.00000       Uiso       1.00
      C466          C  0.9269574  0.1654210  0.6498362    0.00000       Uiso       1.00
      C467          C  0.9411840  0.1736805  0.6328548    0.00000       Uiso       1.00
      H309          H  0.9748828  0.1677653  0.6127774    0.00000       Uiso       1.00
      H310          H  0.9655511  0.1163574  0.6600015    0.00000       Uiso       1.00
      C468          C  0.0142739  0.1279572  0.5992015    0.00000       Uiso       1.00
      C469          C  0.0359536  0.1245100  0.5894142    0.00000       Uiso       1.00
      C470          C  0.0070288  0.1321618  0.5842190    0.00000       Uiso       1.00
      C471          C  0.0196452  0.1350994  0.5610263    0.00000       Uiso       1.00
      C472          C  0.0404729  0.1329718  0.5520394    0.00000       Uiso       1.00
      C473          C  0.0487349  0.1274706  0.5662649    0.00000       Uiso       1.00
      H311          H  0.0428231  0.1197617  0.5999541    0.00000       Uiso       1.00
      H312          H  0.9914090  0.1332546  0.5906114    0.00000       Uiso       1.00
      C474          C  0.0030088  0.1337371  0.6393397    0.00000       Uiso       1.00
      C475          C  0.9995654  0.1252904  0.6610102    0.00000       Uiso       1.00
      C476          C  0.0072051  0.1517622  0.6321128    0.00000       Uiso       1.00
      C477          C  0.0101393  0.1594021  0.6447374    0.00000       Uiso       1.00
      C478          C  0.0080163  0.1496879  0.6655552    0.00000       Uiso       1.00
      C479          C  0.0025230  0.1326990  0.6737995    0.00000       Uiso       1.00
      H313          H  0.9948230  0.1126268  0.6678663    0.00000       Uiso       1.00
      H314          H  0.0082942  0.1598972  0.6165009    0.00000       Uiso       1.00
      C480          C  0.9319262  0.1946198  0.6235447    0.00000       Uiso       1.00
      C481          C  0.9089924  0.2070810  0.6308036    0.00000       Uiso       1.00
      C482          C  0.9214982  0.1367386  0.6767281    0.00000       Uiso       1.00
      C483          C  0.8985505  0.1492234  0.6840796    0.00000       Uiso       1.00
      C484          C  0.0696753  0.1251083  0.5570143    0.00000       Uiso       1.00
      C485          C  0.0821351  0.1283276  0.5340889    0.00000       Uiso       1.00
      H315          H  0.9025188  0.2230856  0.6231563    0.00000       Uiso       1.00
      H316          H  0.9424807  0.2013576  0.6104860    0.00000       Uiso       1.00
      H317          H  0.9279703  0.1208049  0.6844742    0.00000       Uiso       1.00
      H318          H  0.8879790  0.1425768  0.6973146    0.00000       Uiso       1.00
      H319          H  0.0764151  0.1208775  0.5675681    0.00000       Uiso       1.00
      H320          H  0.0981407  0.1264506  0.5276209    0.00000       Uiso       1.00
      C486          C  0.2499993  0.0000007  0.9995534    0.00000       Uiso       1.00
      C487          C  0.4261416  0.9288220  0.8637360    0.00000       Uiso       1.00
      C488          C  0.4181921  0.9241995  0.8868055    0.00000       Uiso       1.00
      C489          C  0.4336397  0.9093134  0.8943908    0.00000       Uiso       1.00
      C490          C  0.4567622  0.8989389  0.8790703    0.00000       Uiso       1.00
      C491          C  0.4647119  0.9033607  0.8559585    0.00000       Uiso       1.00
      C492          C  0.4492695  0.9183682  0.8483785    0.00000       Uiso       1.00
      H321          H  0.4146217  0.9405164  0.8574701    0.00000       Uiso       1.00
      H322          H  0.4277861  0.9057341  0.9121827    0.00000       Uiso       1.00
      C493          C  0.1576072  0.1127489  0.9237524    0.00000       Uiso       1.00
      C494          C  0.1450350  0.1358183  0.9283749    0.00000       Uiso       1.00
      C495          C  0.1570456  0.1051636  0.9088664    0.00000       Uiso       1.00
      C496          C  0.1442976  0.1204841  0.8984919    0.00000       Uiso       1.00
      C497          C  0.1319261  0.1435959  0.9029136    0.00000       Uiso       1.00
      C498          C  0.1323610  0.1511758  0.9179211    0.00000       Uiso       1.00
      H323          H  0.1448606  0.1420842  0.9400693    0.00000       Uiso       1.00
      H324          H  0.1664786  0.0873716  0.9052871    0.00000       Uiso       1.00
      C499          C  0.2296430  0.0758009  0.1123021    0.00000       Uiso       1.00
      C500          C  0.2191457  0.0711784  0.1353716    0.00000       Uiso       1.00
      C501          C  0.2377899  0.0906870  0.1047169    0.00000       Uiso       1.00
      C502          C  0.2352174  0.1010615  0.1200374    0.00000       Uiso       1.00
      C503          C  0.2244770  0.0966398  0.1431492    0.00000       Uiso       1.00
      C504          C  0.2164623  0.0816322  0.1507291    0.00000       Uiso       1.00
      H325          H  0.2130543  0.0594840  0.1416374    0.00000       Uiso       1.00
      H326          H  0.2461489  0.0942663  0.0869249    0.00000       Uiso       1.00
      C505          C  0.1945546  0.8872516  0.0753546    0.00000       Uiso       1.00
      C506          C  0.2096744  0.8641821  0.0707321    0.00000       Uiso       1.00
      C507          C  0.1715217  0.8948368  0.0902406    0.00000       Uiso       1.00
      C508          C  0.1637196  0.8795164  0.1006151    0.00000       Uiso       1.00
      C509          C  0.1788818  0.8564045  0.0961934    0.00000       Uiso       1.00
      C510          C  0.2019041  0.8488246  0.0811859    0.00000       Uiso       1.00
      H327          H  0.2274601  0.8579162  0.0590377    0.00000       Uiso       1.00
      H328          H  0.1595833  0.9126289  0.0938199    0.00000       Uiso       1.00
      C511          C  0.1441046  0.1117004  0.8823614    0.00000       Uiso       1.00
      H329          H  0.1348874  0.1238325  0.8767292    0.00000       Uiso       1.00
      H330          H  0.1588322  0.1041195  0.8703697    0.00000       Uiso       1.00
      H331          H  0.1384753  0.1017308  0.8900344    0.00000       Uiso       1.00
      C512          C  0.2441940  0.1171920  0.1112537    0.00000       Uiso       1.00
      H332          H  0.2412791  0.1228241  0.1233858    0.00000       Uiso       1.00
      H333          H  0.2597930  0.1095189  0.1012842    0.00000       Uiso       1.00
      H334          H  0.2370475  0.1291837  0.1036727    0.00000       Uiso       1.00
      C513          C  0.2187779  0.8238655  0.0758884    0.00000       Uiso       1.00
      H335          H  0.2111865  0.8156515  0.0840749    0.00000       Uiso       1.00
      H336          H  0.2261089  0.8215156  0.0604115    0.00000       Uiso       1.00
      H337          H  0.2294473  0.8190325  0.0799110    0.00000       Uiso       1.00
      C514          C  0.4573548  0.9236656  0.8234195    0.00000       Uiso       1.00
      H338          H  0.4731600  0.9154792  0.8152055    0.00000       Uiso       1.00
      H339          H  0.4515184  0.9196430  0.8185865    0.00000       Uiso       1.00
      H340          H  0.4523735  0.9391425  0.8210696    0.00000       Uiso       1.00
      C515          C  0.1189783  0.1761349  0.9232186    0.00000       Uiso       1.00
      H341          H  0.1113594  0.1843489  0.9150321    0.00000       Uiso       1.00
      H342          H  0.1084826  0.1784848  0.9386955    0.00000       Uiso       1.00
      H343          H  0.1288373  0.1809679  0.9191961    0.00000       Uiso       1.00
      C516          C  0.2048859  0.0763348  0.1756881    0.00000       Uiso       1.00
      H344          H  0.2042909  0.0845212  0.1839021    0.00000       Uiso       1.00
      H345          H  0.1901939  0.0803574  0.1805211    0.00000       Uiso       1.00
      H346          H  0.2130317  0.0608579  0.1780380    0.00000       Uiso       1.00
      C517          C  0.1386125  0.8883000  0.1167456    0.00000       Uiso       1.00
      H347          H  0.1358953  0.8761679  0.1223776    0.00000       Uiso       1.00
      H348          H  0.1337674  0.8958810  0.1287373    0.00000       Uiso       1.00
      H349          H  0.1306866  0.8982696  0.1090725    0.00000       Uiso       1.00
      C518          C  0.4730856  0.8828084  0.8878540    0.00000       Uiso       1.00
      H350          H  0.4879349  0.8771763  0.8757219    0.00000       Uiso       1.00
      H351          H  0.4710420  0.8904815  0.8978236    0.00000       Uiso       1.00
      H352          H  0.4703498  0.8708167  0.8954350    0.00000       Uiso       1.00
      C519          C  0.3554521  0.9686605  0.9166545    0.00000       Uiso       1.00
      C520          C  0.3464303  0.9567856  0.9353297    0.00000       Uiso       1.00
      C521          C  0.3607236  0.9343508  0.9382265    0.00000       Uiso       1.00
      C522          C  0.3838580  0.9239190  0.9224513    0.00000       Uiso       1.00
      C523          C  0.3932707  0.9355000  0.9035290    0.00000       Uiso       1.00
      C524          C  0.3786173  0.9580224  0.9009425    0.00000       Uiso       1.00
      H353          H  0.3852364  0.9674906  0.8869047    0.00000       Uiso       1.00
      H354          H  0.3944622  0.9066306  0.9248184    0.00000       Uiso       1.00
      C525          C  0.1967829  0.0642244  0.9563386    0.00000       Uiso       1.00
      C526          C  0.1758862  0.0828997  0.9682134    0.00000       Uiso       1.00
      C527          C  0.2049243  0.0613276  0.9339038    0.00000       Uiso       1.00
      C528          C  0.1922218  0.0771030  0.9234720    0.00000       Uiso       1.00
      C529          C  0.1712280  0.0960253  0.9350531    0.00000       Uiso       1.00
      C530          C  0.1633592  0.0986118  0.9575753    0.00000       Uiso       1.00
      H355          H  0.1472717  0.1126496  0.9670436    0.00000       Uiso       1.00
      H356          H  0.1989059  0.0747359  0.9061836    0.00000       Uiso       1.00
      C531          C  0.2389917  0.0432148  0.0637777    0.00000       Uiso       1.00
      C532          C  0.2412133  0.0313399  0.0824529    0.00000       Uiso       1.00
      C533          C  0.2337468  0.0656497  0.0608811    0.00000       Uiso       1.00
      C534          C  0.2306741  0.0760815  0.0766564    0.00000       Uiso       1.00
      C535          C  0.2327458  0.0645004  0.0955786    0.00000       Uiso       1.00
      C536          C  0.2380284  0.0419780  0.0981650    0.00000       Uiso       1.00
      H357          H  0.2400781  0.0325097  0.1122027    0.00000       Uiso       1.00
      H358          H  0.2263569  0.0933699  0.0742894    0.00000       Uiso       1.00
      C537          C  0.2177920  0.9357760  0.0427685    0.00000       Uiso       1.00
      C538          C  0.2274455  0.9171006  0.0308937    0.00000       Uiso       1.00
      C539          C  0.2006017  0.9386728  0.0652033    0.00000       Uiso       1.00
      C540          C  0.1932427  0.9228975  0.0756351    0.00000       Uiso       1.00
      C541          C  0.2027524  0.9039751  0.0640541    0.00000       Uiso       1.00
      C542          C  0.2199923  0.9013886  0.0415318    0.00000       Uiso       1.00
      H359          H  0.2274111  0.8873507  0.0320636    0.00000       Uiso       1.00
      H360          H  0.1802714  0.9252647  0.0929234    0.00000       Uiso       1.00
      C543          C  0.3410269  0.9910966  0.9141791    0.00000       Uiso       1.00
      C544          C  0.3180968  0.0015525  0.9298572    0.00000       Uiso       1.00
      C545          C  0.3515118  0.9227827  0.9569895    0.00000       Uiso       1.00
      C546          C  0.3285678  0.9332284  0.9725888    0.00000       Uiso       1.00
      C547          C  0.2317296  0.0772178  0.0421182    0.00000       Uiso       1.00
      C548          C  0.2348307  0.0667722  0.0265188    0.00000       Uiso       1.00
      C549          C  0.1910506  0.9574358  0.0767713    0.00000       Uiso       1.00
      C550          C  0.1983952  0.9730352  0.0663257    0.00000       Uiso       1.00
      C551          C  0.2443460  0.9146252  0.0084577    0.00000       Uiso       1.00
      C552          C  0.2515983  0.9303039  0.9980016    0.00000       Uiso       1.00
      H361          H  0.2519999  0.9005083  0.9989166    0.00000       Uiso       1.00
      H362          H  0.2646581  0.9278055  0.9807128    0.00000       Uiso       1.00
      H363          H  0.1778144  0.9600935  0.0939858    0.00000       Uiso       1.00
      H364          H  0.1906427  0.9872500  0.0757964    0.00000       Uiso       1.00
      H365          H  0.3221055  0.9237576  0.9868037    0.00000       Uiso       1.00
      H366          H  0.3620903  0.9055682  0.9596471    0.00000       Uiso       1.00
      H367          H  0.3075352  0.0188413  0.9273590    0.00000       Uiso       1.00
      H368          H  0.3474906  0.0006375  0.9000619    0.00000       Uiso       1.00
      H369          H  0.2331122  0.0762429  0.0123041    0.00000       Uiso       1.00
      H370          H  0.2277511  0.0944324  0.0394607    0.00000       Uiso       1.00
      C553          C  0.2856974  0.0002162  0.9641618    0.00000       Uiso       1.00
      C554          C  0.2759155  0.9883192  0.9823793    0.00000       Uiso       1.00
      C555          C  0.2909080  0.9660983  0.9854068    0.00000       Uiso       1.00
      C556          C  0.3141053  0.9555326  0.9698536    0.00000       Uiso       1.00
      C557          C  0.3230869  0.9673771  0.9511681    0.00000       Uiso       1.00
      C558          C  0.3088515  0.9898582  0.9484208    0.00000       Uiso       1.00
      H371          H  0.2751497  0.0176210  0.9620512    0.00000       Uiso       1.00
      H372          H  0.2845196  0.9568682  0.9999226    0.00000       Uiso       1.00
      C559          C  0.2357642  0.0171748  0.9878722    0.00000       Uiso       1.00
      C560          C  0.2140855  0.0353923  0.9997689    0.00000       Uiso       1.00
      C561          C  0.2429926  0.0141474  0.9656514    0.00000       Uiso       1.00
      C562          C  0.2303610  0.0297005  0.9550855    0.00000       Uiso       1.00
      C563          C  0.2095347  0.0483860  0.9669302    0.00000       Uiso       1.00
      C564          C  0.2012892  0.0511332  0.9894112    0.00000       Uiso       1.00
      H373          H  0.2072283  0.0375023  0.0171743    0.00000       Uiso       1.00
      H374          H  0.2586111  0.9996311  0.9564213    0.00000       Uiso       1.00
      C565          C  0.2470600  0.0116812  0.0167282    0.00000       Uiso       1.00
      C566          C  0.2505215  0.9997842  0.0349455    0.00000       Uiso       1.00
      C567          C  0.2428590  0.0339021  0.0137008    0.00000       Uiso       1.00
      C568          C  0.2399373  0.0444680  0.0292539    0.00000       Uiso       1.00
      C569          C  0.2420783  0.0326233  0.0479393    0.00000       Uiso       1.00
      C570          C  0.2475768  0.0101422  0.0506865    0.00000       Uiso       1.00
      H375          H  0.2552680  0.9823794  0.0370560    0.00000       Uiso       1.00
      H376          H  0.2417564  0.0431328  0.9991843    0.00000       Uiso       1.00
      C571          C  0.2412572  0.9828256  0.0112350    0.00000       Uiso       1.00
      C572          C  0.2496928  0.9646086  0.9993378    0.00000       Uiso       1.00
      C573          C  0.2232372  0.9858531  0.0334558    0.00000       Uiso       1.00
      C574          C  0.2155930  0.9703000  0.0440216    0.00000       Uiso       1.00
      C575          C  0.2252969  0.9516144  0.0321770    0.00000       Uiso       1.00
      C576          C  0.2422796  0.9488671  0.0096961    0.00000       Uiso       1.00
      H377          H  0.2623512  0.9624980  0.9819330    0.00000       Uiso       1.00
      H378          H  0.2151097  0.0003693  0.0426859    0.00000       Uiso       1.00
      C577          C  0.1803498  0.0696964  0.0011057    0.00000       Uiso       1.00
      C578          C  0.1678753  0.0853751  0.9906496    0.00000       Uiso       1.00
      C579          C  0.2382027  0.0269653  0.9327814    0.00000       Uiso       1.00
      C580          C  0.2257043  0.0425646  0.9223357    0.00000       Uiso       1.00
      C581          C  0.2499526  0.9984478  0.0692500    0.00000       Uiso       1.00
      C582          C  0.2467492  0.0089037  0.0849281    0.00000       Uiso       1.00
      H379          H  0.1518710  0.0994919  0.0001906    0.00000       Uiso       1.00
      H380          H  0.1736225  0.0721947  0.0183945    0.00000       Uiso       1.00
      H381          H  0.2541357  0.0127505  0.9233108    0.00000       Uiso       1.00
      H382          H  0.2323403  0.0399070  0.9051213    0.00000       Uiso       1.00
      H383          H  0.2541817  0.9811590  0.0717482    0.00000       Uiso       1.00
      H384          H  0.2486363  0.9993628  0.0990454    0.00000       Uiso       1.00
      C583          C  0.6517218  0.6204591  0.3082201    0.00000       Uiso       1.00
      C584          C  0.6641058  0.6253585  0.2860298    0.00000       Uiso       1.00
      C585          C  0.6664800  0.6187206  0.2684044    0.00000       Uiso       1.00
      C586          C  0.6797642  0.6229388  0.2463409    0.00000       Uiso       1.00
      C587          C  0.6921760  0.6325939  0.2412644    0.00000       Uiso       1.00
      C588          C  0.6898152  0.6389146  0.2591951    0.00000       Uiso       1.00
      C589          C  0.6746281  0.6370894  0.2815168    0.00000       Uiso       1.00
        O1          O  0.6412397  0.6083219  0.3154636    0.00000       Uiso       1.00
      H385          H  0.7008224  0.6440505  0.2558323    0.00000       Uiso       1.00
      C590          C  0.7103235  0.7229979  0.2944375    0.00000       Uiso       1.00
      C591          C  0.7005218  0.7106194  0.2993465    0.00000       Uiso       1.00
      C592          C  0.6853271  0.7082589  0.3212535    0.00000       Uiso       1.00
      C593          C  0.6763800  0.6950843  0.3258824    0.00000       Uiso       1.00
      C594          C  0.6835395  0.6827819  0.3089001    0.00000       Uiso       1.00
      C595          C  0.6991490  0.6850823  0.2869990    0.00000       Uiso       1.00
      C596          C  0.7064312  0.7001586  0.2816470    0.00000       Uiso       1.00
        O2          O  0.7069652  0.7334904  0.3098922    0.00000       Uiso       1.00
      H386          H  0.6803055  0.7168438  0.3347023    0.00000       Uiso       1.00
      H387          H  0.6639968  0.6945298  0.3428517    0.00000       Uiso       1.00
      H388          H  0.7066845  0.6741410  0.2742095    0.00000       Uiso       1.00
      C597          C  0.7549354  0.6645213  0.1471916    0.00000       Uiso       1.00
      C598          C  0.7500651  0.6743065  0.1644491    0.00000       Uiso       1.00
      C599          C  0.7567973  0.6894917  0.1600849    0.00000       Uiso       1.00
      C600          C  0.7525091  0.6984290  0.1775607    0.00000       Uiso       1.00
      C601          C  0.7426888  0.6912691  0.1996846    0.00000       Uiso       1.00
      C602          C  0.7363672  0.6756783  0.2036820    0.00000       Uiso       1.00
      C603          C  0.7382756  0.6684121  0.1866820    0.00000       Uiso       1.00
        O3          O  0.7669775  0.6679921  0.1246194    0.00000       Uiso       1.00
      H389          H  0.7652180  0.6944997  0.1430677    0.00000       Uiso       1.00
      H390          H  0.7571176  0.7107985  0.1735070    0.00000       Uiso       1.00
      H391          H  0.7311093  0.6681217  0.2198624    0.00000       Uiso       1.00
      C604          C  0.7484145  0.6495152  0.1514256    0.00000       Uiso       1.00
      C605          C  0.7358493  0.6440607  0.1732501    0.00000       Uiso       1.00
      C606          C  0.7291225  0.6288399  0.1776775    0.00000       Uiso       1.00
      C607          C  0.7157604  0.6244259  0.1996033    0.00000       Uiso       1.00
      C608          C  0.7075720  0.6361845  0.2175861    0.00000       Uiso       1.00
      C609          C  0.7142562  0.6516654  0.2128094    0.00000       Uiso       1.00
      C610          C  0.7296888  0.6545107  0.1911326    0.00000       Uiso       1.00
        O4          O  0.7550168  0.6416004  0.1321121    0.00000       Uiso       1.00
      H392          H  0.7064029  0.6625313  0.2258105    0.00000       Uiso       1.00
      C611          C  0.7253058  0.7252743  0.2729186    0.00000       Uiso       1.00
      C612          C  0.7307558  0.7160190  0.2549143    0.00000       Uiso       1.00
      C613          C  0.7459683  0.7183765  0.2330178    0.00000       Uiso       1.00
      C614          C  0.7505408  0.7097012  0.2151782    0.00000       Uiso       1.00
      C615          C  0.7389069  0.6997590  0.2186947    0.00000       Uiso       1.00
      C616          C  0.7233562  0.6979005  0.2408420    0.00000       Uiso       1.00
      C617          C  0.7203711  0.7042557  0.2591589    0.00000       Uiso       1.00
        O5          O  0.7333508  0.7379072  0.2714899    0.00000       Uiso       1.00
      H393          H  0.7544173  0.7267985  0.2298681    0.00000       Uiso       1.00
      H394          H  0.7631010  0.7110283  0.1986930    0.00000       Uiso       1.00
      H395          H  0.7125611  0.6926514  0.2438261    0.00000       Uiso       1.00
      C618          C  0.6495001  0.6269799  0.3254650    0.00000       Uiso       1.00
      C619          C  0.6587613  0.6395221  0.3216687    0.00000       Uiso       1.00
      C620          C  0.6564150  0.6461909  0.3392428    0.00000       Uiso       1.00
      C621          C  0.6650932  0.6594515  0.3351607    0.00000       Uiso       1.00
      C622          C  0.6750371  0.6675674  0.3135946    0.00000       Uiso       1.00
      C623          C  0.6768935  0.6609705  0.2961828    0.00000       Uiso       1.00
      C624          C  0.6705251  0.6456495  0.2995463    0.00000       Uiso       1.00
        O6          O  0.6369434  0.6203284  0.3461703    0.00000       Uiso       1.00
      H396          H  0.6479933  0.6408763  0.3560958    0.00000       Uiso       1.00
      H397          H  0.6637647  0.6633624  0.3490556    0.00000       Uiso       1.00
      H398          H  0.6821433  0.6687573  0.2801338    0.00000       Uiso       1.00
        B1          B  0.6319078  0.6084059  0.3395164    0.00000       Uiso       1.00
        B2          B  0.7216322  0.7429591  0.2950984    0.00000       Uiso       1.00
        B3          B  0.7668034  0.6533781  0.1152676    0.00000       Uiso       1.00
      H399          H  0.6579171  0.6104085  0.2716797    0.00000       Uiso       1.00
      H400          H  0.6803511  0.6183223  0.2333916    0.00000       Uiso       1.00
      H401          H  0.7343477  0.6201925  0.1641824    0.00000       Uiso       1.00
      H402          H  0.7117730  0.6119085  0.2022145    0.00000       Uiso       1.00
      C625          C  0.5804012  0.3795410  0.6917796    0.00000       Uiso       1.00
      C626          C  0.5754943  0.3746416  0.7139699    0.00000       Uiso       1.00
      C627          C  0.5536051  0.3812795  0.7315953    0.00000       Uiso       1.00
      C628          C  0.5490441  0.3770614  0.7536588    0.00000       Uiso       1.00
      C629          C  0.5660344  0.3674062  0.7587355    0.00000       Uiso       1.00
      C630          C  0.5879251  0.3610855  0.7408048    0.00000       Uiso       1.00
      C631          C  0.5932344  0.3629107  0.7184830    0.00000       Uiso       1.00
        O7          O  0.5650254  0.3916782  0.6845361    0.00000       Uiso       1.00
      H403          H  0.6007054  0.3559496  0.7441676    0.00000       Uiso       1.00
      C632          C  0.7277588  0.2770022  0.7055627    0.00000       Uiso       1.00
      C633          C  0.7104877  0.2893806  0.7006537    0.00000       Uiso       1.00
      C634          C  0.7148396  0.2917412  0.6787466    0.00000       Uiso       1.00
      C635          C  0.6973467  0.3049158  0.6741177    0.00000       Uiso       1.00
      C636          C  0.6752214  0.3172183  0.6910999    0.00000       Uiso       1.00
      C637          C  0.6712303  0.3149178  0.7130011    0.00000       Uiso       1.00
      C638          C  0.6882368  0.2998415  0.7183531    0.00000       Uiso       1.00
        O8          O  0.7503478  0.2665097  0.6901080    0.00000       Uiso       1.00
      H404          H  0.7318516  0.2831563  0.6652978    0.00000       Uiso       1.00
      H405          H  0.7013783  0.3054702  0.6571483    0.00000       Uiso       1.00
      H406          H  0.6550351  0.3258590  0.7257905    0.00000       Uiso       1.00
      C639          C  0.5666484  0.3354788  0.8528083    0.00000       Uiso       1.00
      C640          C  0.5888208  0.3256936  0.8355509    0.00000       Uiso       1.00
      C641          C  0.6063739  0.3105084  0.8399152    0.00000       Uiso       1.00
      C642          C  0.6284989  0.3015711  0.8224393    0.00000       Uiso       1.00
      C643          C  0.6336427  0.3087310  0.8003154    0.00000       Uiso       1.00
      C644          C  0.6157275  0.3243219  0.7963180    0.00000       Uiso       1.00
      C645          C  0.5933697  0.3315880  0.8133180    0.00000       Uiso       1.00
        O9          O  0.5595891  0.3320080  0.8753805    0.00000       Uiso       1.00
      H407          H  0.6027856  0.3055004  0.8569323    0.00000       Uiso       1.00
      H408          H  0.6414232  0.2892016  0.8264931    0.00000       Uiso       1.00
      H409          H  0.6190935  0.3318784  0.7801375    0.00000       Uiso       1.00
      C646          C  0.5493554  0.3504850  0.8485743    0.00000       Uiso       1.00
      C647          C  0.5531603  0.3559394  0.8267498    0.00000       Uiso       1.00
      C648          C  0.5356401  0.3711602  0.8223223    0.00000       Uiso       1.00
      C649          C  0.5397899  0.3755741  0.8003964    0.00000       Uiso       1.00
      C650          C  0.5613427  0.3638157  0.7824137    0.00000       Uiso       1.00
      C651          C  0.5787311  0.3483347  0.7871905    0.00000       Uiso       1.00
      C652          C  0.5753322  0.3454894  0.8088673    0.00000       Uiso       1.00
       O10          O  0.5287295  0.3583997  0.8678878    0.00000       Uiso       1.00
      H410          H  0.5947447  0.3374689  0.7741894    0.00000       Uiso       1.00
      C653          C  0.7234986  0.2747258  0.7270816    0.00000       Uiso       1.00
      C654          C  0.7016892  0.2839810  0.7450858    0.00000       Uiso       1.00
      C655          C  0.6973626  0.2816235  0.7669824    0.00000       Uiso       1.00
      C656          C  0.6754202  0.2902988  0.7848220    0.00000       Uiso       1.00
      C657          C  0.6573606  0.3002411  0.7813054    0.00000       Uiso       1.00
      C658          C  0.6620988  0.3020996  0.7591581    0.00000       Uiso       1.00
      C659          C  0.6837857  0.2957444  0.7408412    0.00000       Uiso       1.00
       O11          O  0.7427478  0.2620929  0.7285103    0.00000       Uiso       1.00
      H411          H  0.7110839  0.2732015  0.7701321    0.00000       Uiso       1.00
      H412          H  0.6728224  0.2889717  0.8013072    0.00000       Uiso       1.00
      H413          H  0.6490387  0.3073487  0.7561738    0.00000       Uiso       1.00
      C660          C  0.6019452  0.3730201  0.6745349    0.00000       Uiso       1.00
      C661          C  0.6199523  0.3604779  0.6783311    0.00000       Uiso       1.00
      C662          C  0.6418489  0.3538091  0.6607570    0.00000       Uiso       1.00
      C663          C  0.6597055  0.3405486  0.6648393    0.00000       Uiso       1.00
      C664          C  0.6561992  0.3324327  0.6864054    0.00000       Uiso       1.00
      C665          C  0.6340469  0.3390296  0.7038171    0.00000       Uiso       1.00
      C666          C  0.6157210  0.3543506  0.7004536    0.00000       Uiso       1.00
       O12          O  0.6034423  0.3796717  0.6538295    0.00000       Uiso       1.00
      H414          H  0.6449655  0.3591238  0.6439040    0.00000       Uiso       1.00
      H415          H  0.6761827  0.3366377  0.6509444    0.00000       Uiso       1.00
      H416          H  0.6310344  0.3312428  0.7198662    0.00000       Uiso       1.00
        B4          B  0.5798304  0.3915941  0.6604834    0.00000       Uiso       1.00
        B5          B  0.7596897  0.2570409  0.7049018    0.00000       Uiso       1.00
        B6          B  0.5354493  0.3466220  0.8847323    0.00000       Uiso       1.00
      H417          H  0.5400056  0.3895916  0.7283199    0.00000       Uiso       1.00
      H418          H  0.5320650  0.3816779  0.7666082    0.00000       Uiso       1.00
      H419          H  0.5187229  0.3798076  0.8358174    0.00000       Uiso       1.00
      H420          H  0.5258962  0.3880916  0.7977853    0.00000       Uiso       1.00
      C667          C  0.5957464  0.1472404  0.3375278    0.00000       Uiso       1.00
      C668          C  0.5818400  0.1645063  0.3292527    0.00000       Uiso       1.00
      C669          C  0.5752478  0.1601852  0.3182763    0.00000       Uiso       1.00
      C670          C  0.5622073  0.1776718  0.3091898    0.00000       Uiso       1.00
      C671          C  0.5566285  0.1997325  0.3096621    0.00000       Uiso       1.00
      C672          C  0.5636625  0.2037020  0.3205477    0.00000       Uiso       1.00
      C673          C  0.5746976  0.1867254  0.3318503    0.00000       Uiso       1.00
       O13          O  0.6046749  0.1246753  0.3357548    0.00000       Uiso       1.00
      H421          H  0.5801799  0.1431987  0.3169001    0.00000       Uiso       1.00
      H422          H  0.5567473  0.1736916  0.3016753    0.00000       Uiso       1.00
      H423          H  0.5617220  0.2198351  0.3191234    0.00000       Uiso       1.00
      C674          C  0.5374466  0.3082354  0.3820261    0.00000       Uiso       1.00
      C675          C  0.5457315  0.2860578  0.3786505    0.00000       Uiso       1.00
      C676          C  0.5567158  0.2684944  0.3895530    0.00000       Uiso       1.00
      C677          C  0.5658121  0.2463712  0.3850916    0.00000       Uiso       1.00
      C678          C  0.5653419  0.2412643  0.3686052    0.00000       Uiso       1.00
      C679          C  0.5544484  0.2591788  0.3576126    0.00000       Uiso       1.00
      C680          C  0.5431360  0.2815115  0.3635687    0.00000       Uiso       1.00
       O14          O  0.5392162  0.3153918  0.3956698    0.00000       Uiso       1.00
      H424          H  0.5580903  0.2720517  0.4016109    0.00000       Uiso       1.00
      H425          H  0.5733324  0.2334004  0.3945236    0.00000       Uiso       1.00
      H426          H  0.5558742  0.2558145  0.3434177    0.00000       Uiso       1.00
      C681          C  0.4929543  0.2944142  0.2792984    0.00000       Uiso       1.00
      C682          C  0.4963277  0.2993252  0.2931970    0.00000       Uiso       1.00
      C683          C  0.4854154  0.3212073  0.2997909    0.00000       Uiso       1.00
      C684          C  0.4898749  0.3258440  0.3128239    0.00000       Uiso       1.00
      C685          C  0.5063691  0.3088947  0.3183930    0.00000       Uiso       1.00
      C686          C  0.5173714  0.2870136  0.3113572    0.00000       Uiso       1.00
      C687          C  0.5114174  0.2816547  0.3003297    0.00000       Uiso       1.00
       O15          O  0.4793035  0.3098213  0.2703800    0.00000       Uiso       1.00
      H427          H  0.4733512  0.3346348  0.2948664    0.00000       Uiso       1.00
      H428          H  0.4804354  0.3427920  0.3182855    0.00000       Uiso       1.00
      H429          H  0.5315720  0.2742510  0.3132906    0.00000       Uiso       1.00
      C688          C  0.5040435  0.2729613  0.2724469    0.00000       Uiso       1.00
      C689          C  0.5181245  0.2549546  0.2801722    0.00000       Uiso       1.00
      C690          C  0.5290290  0.2330640  0.2736058    0.00000       Uiso       1.00
      C691          C  0.5421612  0.2152112  0.2824171    0.00000       Uiso       1.00
      C692          C  0.5435666  0.2187306  0.2990340    0.00000       Uiso       1.00
      C693          C  0.5322498  0.2408734  0.3056140    0.00000       Uiso       1.00
      C694          C  0.5209568  0.2591829  0.2952360    0.00000       Uiso       1.00
       O16          O  0.4989817  0.2715712  0.2582542    0.00000       Uiso       1.00
      H430          H  0.5273741  0.2299248  0.2615439    0.00000       Uiso       1.00
      H431          H  0.5509803  0.1987095  0.2762321    0.00000       Uiso       1.00
      H432          H  0.5310725  0.2438689  0.3198191    0.00000       Uiso       1.00
      C695          C  0.5270686  0.3254508  0.3709465    0.00000       Uiso       1.00
      C696          C  0.5231283  0.3216562  0.3568735    0.00000       Uiso       1.00
      C697          C  0.5121276  0.3392088  0.3459787    0.00000       Uiso       1.00
      C698          C  0.5073934  0.3351221  0.3328542    0.00000       Uiso       1.00
      C699          C  0.5123193  0.3135832  0.3314468    0.00000       Uiso       1.00
      C700          C  0.5231599  0.2961769  0.3427539    0.00000       Uiso       1.00
      C701          C  0.5301895  0.2995363  0.3540392    0.00000       Uiso       1.00
       O17          O  0.5206186  0.3460902  0.3760088    0.00000       Uiso       1.00
      H433          H  0.5073330  0.3560618  0.3476355    0.00000       Uiso       1.00
      H434          H  0.4996994  0.3489904  0.3240426    0.00000       Uiso       1.00
      H435          H  0.5249798  0.2801540  0.3439299    0.00000       Uiso       1.00
      C702          C  0.6025964  0.1514808  0.3478980    0.00000       Uiso       1.00
      C703          C  0.5948616  0.1732835  0.3518401    0.00000       Uiso       1.00
      C704          C  0.6014264  0.1776246  0.3628327    0.00000       Uiso       1.00
      C705          C  0.5926052  0.1995642  0.3675689    0.00000       Uiso       1.00
      C706          C  0.5759802  0.2175791  0.3626529    0.00000       Uiso       1.00
      C707          C  0.5694020  0.2128394  0.3518201    0.00000       Uiso       1.00
      C708          C  0.5797896  0.1911730  0.3447890    0.00000       Uiso       1.00
       O18          O  0.6167979  0.1322323  0.3543386    0.00000       Uiso       1.00
      H436          H  0.6134945  0.1639137  0.3676199    0.00000       Uiso       1.00
      H437          H  0.5987892  0.2022013  0.3752564    0.00000       Uiso       1.00
      H438          H  0.5551908  0.2258609  0.3500076    0.00000       Uiso       1.00
        B7          B  0.6180050  0.1153078  0.3465161    0.00000       Uiso       1.00
        B8          B  0.5284439  0.3394783  0.3917239    0.00000       Uiso       1.00
        B9          B  0.4832560  0.2951047  0.2570545    0.00000       Uiso       1.00
      C709          C  0.0805151  0.8527598  0.6624710    0.00000       Uiso       1.00
      C710          C  0.0755996  0.8354938  0.6707460    0.00000       Uiso       1.00
      C711          C  0.0537100  0.8398150  0.6817223    0.00000       Uiso       1.00
      C712          C  0.0490695  0.8223283  0.6908088    0.00000       Uiso       1.00
      C713          C  0.0660237  0.8002676  0.6903366    0.00000       Uiso       1.00
      C714          C  0.0879128  0.7962981  0.6794510    0.00000       Uiso       1.00
      C715          C  0.0932738  0.8132747  0.6681485    0.00000       Uiso       1.00
       O19          O  0.0651055  0.8753248  0.6642440    0.00000       Uiso       1.00
      H439          H  0.0402793  0.8568015  0.6830985    0.00000       Uiso       1.00
      H440          H  0.0321148  0.8263085  0.6983233    0.00000       Uiso       1.00
      H441          H  0.1006811  0.7801651  0.6808752    0.00000       Uiso       1.00
      C716          C  0.2277085  0.6917647  0.6179729    0.00000       Uiso       1.00
      C717          C  0.2104402  0.7139423  0.6213484    0.00000       Uiso       1.00
      C718          C  0.2147636  0.7315058  0.6104459    0.00000       Uiso       1.00
      C719          C  0.1972754  0.7536289  0.6149073    0.00000       Uiso       1.00
      C720          C  0.1752118  0.7587359  0.6313937    0.00000       Uiso       1.00
      C721          C  0.1712403  0.7408213  0.6423863    0.00000       Uiso       1.00
      C722          C  0.1882167  0.7184886  0.6364301    0.00000       Uiso       1.00
       O20          O  0.2502783  0.6846083  0.6043291    0.00000       Uiso       1.00
      H442          H  0.2317533  0.7279485  0.5983880    0.00000       Uiso       1.00
      H443          H  0.2012569  0.7665997  0.6054753    0.00000       Uiso       1.00
      H444          H  0.1551069  0.7441856  0.6565811    0.00000       Uiso       1.00
      C723          C  0.0666675  0.7055860  0.7207001    0.00000       Uiso       1.00
      C724          C  0.0888506  0.7006749  0.7068015    0.00000       Uiso       1.00
      C725          C  0.1064142  0.6787929  0.7002076    0.00000       Uiso       1.00
      C726          C  0.1285434  0.6741561  0.6871748    0.00000       Uiso       1.00
      C727          C  0.1336574  0.6911054  0.6816056    0.00000       Uiso       1.00
      C728          C  0.1157428  0.7129865  0.6886415    0.00000       Uiso       1.00
      C729          C  0.0934025  0.7183454  0.6996689    0.00000       Uiso       1.00
       O21          O  0.0595055  0.6901789  0.7296185    0.00000       Uiso       1.00
      H445          H  0.1028531  0.6653654  0.7051321    0.00000       Uiso       1.00
      H446          H  0.1415136  0.6572081  0.6817131    0.00000       Uiso       1.00
      H447          H  0.1191142  0.7257491  0.6867082    0.00000       Uiso       1.00
      C730          C  0.0494525  0.7270387  0.7275516    0.00000       Uiso       1.00
      C731          C  0.0532519  0.7450455  0.7198263    0.00000       Uiso       1.00
      C732          C  0.0356994  0.7669362  0.7263927    0.00000       Uiso       1.00
      C733          C  0.0397902  0.7847889  0.7175815    0.00000       Uiso       1.00
      C734          C  0.0613319  0.7812695  0.7009646    0.00000       Uiso       1.00
      C735          C  0.0787379  0.7591267  0.6943847    0.00000       Uiso       1.00
      C736          C  0.0753763  0.7408172  0.7047626    0.00000       Uiso       1.00
       O22          O  0.0288079  0.7284289  0.7417442    0.00000       Uiso       1.00
      H448          H  0.0188436  0.7700754  0.7384546    0.00000       Uiso       1.00
      H449          H  0.0259226  0.8012906  0.7237665    0.00000       Uiso       1.00
      H450          H  0.0947611  0.7561312  0.6801795    0.00000       Uiso       1.00
      C737          C  0.2234664  0.6745493  0.6290524    0.00000       Uiso       1.00
      C738          C  0.2016585  0.6783440  0.6431254    0.00000       Uiso       1.00
      C739          C  0.1973158  0.6607913  0.6540201    0.00000       Uiso       1.00
      C740          C  0.1753702  0.6648781  0.6671446    0.00000       Uiso       1.00
      C741          C  0.1573500  0.6864169  0.6685519    0.00000       Uiso       1.00
      C742          C  0.1620914  0.7038232  0.6572448    0.00000       Uiso       1.00
      C743          C  0.1837655  0.7004638  0.6459596    0.00000       Uiso       1.00
       O23          O  0.2427180  0.6539099  0.6239901    0.00000       Uiso       1.00
      H451          H  0.2110309  0.6439383  0.6523634    0.00000       Uiso       1.00
      H452          H  0.1727331  0.6510097  0.6759561    0.00000       Uiso       1.00
      H453          H  0.1490643  0.7198461  0.6560688    0.00000       Uiso       1.00
      C744          C  0.1019758  0.8485193  0.6521007    0.00000       Uiso       1.00
      C745          C  0.1199857  0.8267166  0.6481587    0.00000       Uiso       1.00
      C746          C  0.1418842  0.8223755  0.6371661    0.00000       Uiso       1.00
      C747          C  0.1597389  0.8004359  0.6324300    0.00000       Uiso       1.00
      C748          C  0.1562126  0.7824211  0.6373460    0.00000       Uiso       1.00
      C749          C  0.1340620  0.7871608  0.6481787    0.00000       Uiso       1.00
      C750          C  0.1157521  0.8088272  0.6552098    0.00000       Uiso       1.00
       O24          O  0.1033694  0.8677678  0.6456602    0.00000       Uiso       1.00
      H454          H  0.1450286  0.8360864  0.6323791    0.00000       Uiso       1.00
      H455          H  0.1762473  0.7977989  0.6247425    0.00000       Uiso       1.00
      H456          H  0.1310599  0.7741393  0.6499912    0.00000       Uiso       1.00
       B10          B  0.0798294  0.8846923  0.6534827    0.00000       Uiso       1.00
       B11          B  0.2596467  0.6605218  0.6082751    0.00000       Uiso       1.00
       B12          B  0.0354160  0.7048954  0.7429439    0.00000       Uiso       1.00
      C751          C  0.9952410  0.3530169  0.8347847    0.00000       Uiso       1.00
      C752          C  0.0001284  0.3357433  0.8249729    0.00000       Uiso       1.00
      C753          C  0.9934727  0.3400150  0.8097333    0.00000       Uiso       1.00
      C754          C  0.9976789  0.3225224  0.8009483    0.00000       Uiso       1.00
      C755          C  0.0073395  0.3004578  0.8082660    0.00000       Uiso       1.00
      C756          C  0.0136781  0.2964898  0.8238244    0.00000       Uiso       1.00
      C757          C  0.0118652  0.3134922  0.8309642    0.00000       Uiso       1.00
       O25          O  0.9831002  0.3756329  0.8315631    0.00000       Uiso       1.00
      H457          H  0.0188183  0.2803482  0.8314558    0.00000       Uiso       1.00
      C758          C  0.0978397  0.1918826  0.8794658    0.00000       Uiso       1.00
      C759          C  0.0854557  0.2140605  0.8745907    0.00000       Uiso       1.00
      C760          C  0.0831069  0.2316060  0.8813090    0.00000       Uiso       1.00
      C761          C  0.0699265  0.2537256  0.8770085    0.00000       Uiso       1.00
      C762          C  0.0576066  0.2588762  0.8671978    0.00000       Uiso       1.00
      C763          C  0.0598954  0.2409761  0.8608999    0.00000       Uiso       1.00
      C764          C  0.0749769  0.2186199  0.8628126    0.00000       Uiso       1.00
       O26          O  0.1083491  0.1847415  0.8915490    0.00000       Uiso       1.00
      H458          H  0.0917054  0.2280367  0.8897270    0.00000       Uiso       1.00
      H459          H  0.0693814  0.2666558  0.8815985    0.00000       Uiso       1.00
      H460          H  0.0489412  0.2443875  0.8556547    0.00000       Uiso       1.00
      C765          C  0.0392251  0.2058129  0.7769101    0.00000       Uiso       1.00
      C766          C  0.0490279  0.2008904  0.7892851    0.00000       Uiso       1.00
      C767          C  0.0642190  0.1789750  0.7916354    0.00000       Uiso       1.00
      C768          C  0.0731740  0.1743181  0.8048111    0.00000       Uiso       1.00
      C769          C  0.0660264  0.1912882  0.8171200    0.00000       Uiso       1.00
      C770          C  0.0504293  0.2131991  0.8148135    0.00000       Uiso       1.00
      C771          C  0.0431455  0.2185644  0.7997343    0.00000       Uiso       1.00
       O27          O  0.0426827  0.1903102  0.7663761    0.00000       Uiso       1.00
      H461          H  0.0692179  0.1655537  0.7830346    0.00000       Uiso       1.00
      H462          H  0.0855475  0.1573418  0.8053525    0.00000       Uiso       1.00
      H463          H  0.0428815  0.2260063  0.8257403    0.00000       Uiso       1.00
      C772          C  0.0242131  0.2273381  0.7746404    0.00000       Uiso       1.00
      C773          C  0.0187701  0.2453480  0.7839061    0.00000       Uiso       1.00
      C774          C  0.0035435  0.2672937  0.7816244    0.00000       Uiso       1.00
      C775          C  0.9991411  0.2850599  0.7901942    0.00000       Uiso       1.00
      C776          C  0.0109174  0.2814818  0.7999774    0.00000       Uiso       1.00
      C777          C  0.0264040  0.2593187  0.8018672    0.00000       Uiso       1.00
      C778          C  0.0292380  0.2410506  0.7956163    0.00000       Uiso       1.00
       O28          O  0.0162806  0.2286591  0.7619390    0.00000       Uiso       1.00
      H464          H  0.0372828  0.2563004  0.8070065    0.00000       Uiso       1.00
      C779          C  0.1001045  0.1746336  0.8729233    0.00000       Uiso       1.00
      C780          C  0.0908314  0.1784467  0.8603806    0.00000       Uiso       1.00
      C781          C  0.0931772  0.1608865  0.8536906    0.00000       Uiso       1.00
      C782          C  0.0844841  0.1649973  0.8404351    0.00000       Uiso       1.00
      C783          C  0.0745354  0.1865718  0.8323355    0.00000       Uiso       1.00
      C784          C  0.0726889  0.2039711  0.8389377    0.00000       Uiso       1.00
      C785          C  0.0790620  0.2005929  0.8542584    0.00000       Uiso       1.00
       O29          O  0.1127453  0.1539562  0.8795219    0.00000       Uiso       1.00
      H465          H  0.1016039  0.1440169  0.8589762    0.00000       Uiso       1.00
      H466          H  0.0858027  0.1511173  0.8365051    0.00000       Uiso       1.00
      H467          H  0.0674353  0.2200141  0.8311398    0.00000       Uiso       1.00
      C786          C  0.0017793  0.3487100  0.8497963    0.00000       Uiso       1.00
      C787          C  0.0143279  0.3269083  0.8552434    0.00000       Uiso       1.00
      C788          C  0.0210144  0.3225780  0.8704596    0.00000       Uiso       1.00
      C789          C  0.0342810  0.3006411  0.8750378    0.00000       Uiso       1.00
      C790          C  0.0423857  0.2825909  0.8634090    0.00000       Uiso       1.00
      C791          C  0.0357711  0.2873392  0.8478657    0.00000       Uiso       1.00
      C792          C  0.0204434  0.3090270  0.8448787    0.00000       Uiso       1.00
       O30          O  0.9951378  0.3679090  0.8579528    0.00000       Uiso       1.00
      H468          H  0.0157086  0.3363069  0.8788955    0.00000       Uiso       1.00
      H469          H  0.0382055  0.2980525  0.8875956    0.00000       Uiso       1.00
      H470          H  0.0435494  0.2743098  0.8370619    0.00000       Uiso       1.00
       B13          B  0.9832017  0.3848700  0.8462815    0.00000       Uiso       1.00
       B14          B  0.1178154  0.1606123  0.8914072    0.00000       Uiso       1.00
       B15          B  0.0280537  0.2051024  0.7568676    0.00000       Uiso       1.00
      H471          H  0.9851560  0.3568884  0.8044594    0.00000       Uiso       1.00
      H472          H  0.9930491  0.3265579  0.7885951    0.00000       Uiso       1.00
      H473          H  0.9948824  0.2707218  0.7733636    0.00000       Uiso       1.00
      H474          H  0.9866186  0.3015635  0.7888315    0.00000       Uiso       1.00
      C793          C  0.5218122  0.8821977  0.8085765    0.00000       Uiso       1.00
      C794          C  0.5390722  0.8788419  0.7863959    0.00000       Uiso       1.00
      C795          C  0.5347364  0.8897601  0.7688420    0.00000       Uiso       1.00
      C796          C  0.5522169  0.8853180  0.7467150    0.00000       Uiso       1.00
      C797          C  0.5742853  0.8688359  0.7415936    0.00000       Uiso       1.00
      C798          C  0.5782695  0.8578275  0.7594985    0.00000       Uiso       1.00
      C799          C  0.5613004  0.8637641  0.7818364    0.00000       Uiso       1.00
       O31          O  0.4992394  0.8958352  0.8157450    0.00000       Uiso       1.00
      H475          H  0.5177433  0.9018151  0.7724092    0.00000       Uiso       1.00
      H476          H  0.5482257  0.8947616  0.7337524    0.00000       Uiso       1.00
      H477          H  0.5944076  0.8436357  0.7561216    0.00000       Uiso       1.00
      C800          C  0.6828929  0.7794827  0.7946635    0.00000       Uiso       1.00
      C801          C  0.6607060  0.7933769  0.7995868    0.00000       Uiso       1.00
      C802          C  0.6431494  0.7999512  0.8214746    0.00000       Uiso       1.00
      C803          C  0.6210165  0.8129800  0.8261231    0.00000       Uiso       1.00
      C804          C  0.6158923  0.8185645  0.8091788    0.00000       Uiso       1.00
      C805          C  0.6338001  0.8115483  0.7872915    0.00000       Uiso       1.00
      C806          C  0.6561430  0.8005254  0.7819226    0.00000       Uiso       1.00
       O32          O  0.6900654  0.7705506  0.8100629    0.00000       Uiso       1.00
      H478          H  0.6467197  0.7950140  0.8348972    0.00000       Uiso       1.00
      H479          H  0.6080517  0.8184263  0.8430761    0.00000       Uiso       1.00
      H480          H  0.6304222  0.8134932  0.7745305    0.00000       Uiso       1.00
      C807          C  0.6689536  0.8378421  0.6475419    0.00000       Uiso       1.00
      C808          C  0.6738808  0.8295514  0.6648002    0.00000       Uiso       1.00
      C809          C  0.6957735  0.8185788  0.6604691    0.00000       Uiso       1.00
      C810          C  0.7004261  0.8094767  0.6779476    0.00000       Uiso       1.00
      C811          C  0.6834816  0.8099294  0.7000087    0.00000       Uiso       1.00
      C812          C  0.6615894  0.8208112  0.7039880    0.00000       Uiso       1.00
      C813          C  0.6562155  0.8321290  0.6870217    0.00000       Uiso       1.00
       O33          O  0.6843535  0.8360897  0.6249752    0.00000       Uiso       1.00
      H481          H  0.7091973  0.8172177  0.6434814    0.00000       Uiso       1.00
      H482          H  0.7173823  0.8019657  0.6739607    0.00000       Uiso       1.00
      H483          H  0.6488291  0.8193724  0.7201199    0.00000       Uiso       1.00
      C814          C  0.6474900  0.8482087  0.6517919    0.00000       Uiso       1.00
      C815          C  0.6294885  0.8521311  0.6735981    0.00000       Uiso       1.00
      C816          C  0.6075871  0.8631201  0.6779490    0.00000       Uiso       1.00
      C817          C  0.5897401  0.8678367  0.6998927    0.00000       Uiso       1.00
      C818          C  0.5932766  0.8629044  0.7179032    0.00000       Uiso       1.00
      C819          C  0.6154301  0.8520755  0.7131538    0.00000       Uiso       1.00
      C820          C  0.6337335  0.8450637  0.6914811    0.00000       Uiso       1.00
       O34          O  0.6460844  0.8546670  0.6325495    0.00000       Uiso       1.00
      H484          H  0.6044349  0.8679195  0.6642419    0.00000       Uiso       1.00
      H485          H  0.5732294  0.8755220  0.7025363    0.00000       Uiso       1.00
      H486          H  0.6184391  0.8502510  0.7261736    0.00000       Uiso       1.00
      C821          C  0.7001014  0.7726502  0.7732049    0.00000       Uiso       1.00
      C822          C  0.6962907  0.7803914  0.7552049    0.00000       Uiso       1.00
      C823          C  0.7138365  0.7738443  0.7333085    0.00000       Uiso       1.00
      C824          C  0.7097341  0.7826711  0.7154635    0.00000       Uiso       1.00
      C825          C  0.6881865  0.7992848  0.7189975    0.00000       Uiso       1.00
      C826          C  0.6707874  0.8058454  0.7411460    0.00000       Uiso       1.00
      C827          C  0.6741616  0.7954514  0.7594464    0.00000       Uiso       1.00
       O35          O  0.7207516  0.7584587  0.7718022    0.00000       Uiso       1.00
      H487          H  0.7306964  0.7617852  0.7301592    0.00000       Uiso       1.00
      H488          H  0.7235973  0.7765007  0.6989564    0.00000       Uiso       1.00
      H489          H  0.6547593  0.8200479  0.7441539    0.00000       Uiso       1.00
      C828          C  0.5260668  0.8711027  0.8257822    0.00000       Uiso       1.00
      C829          C  0.5478794  0.8570330  0.8219751    0.00000       Uiso       1.00
      C830          C  0.5522352  0.8461223  0.8395178    0.00000       Uiso       1.00
      C831          C  0.5741848  0.8330017  0.8354192    0.00000       Uiso       1.00
      C832          C  0.5921960  0.8316140  0.8138791    0.00000       Uiso       1.00
      C833          C  0.5874414  0.8429368  0.7964832    0.00000       Uiso       1.00
      C834          C  0.5657638  0.8542188  0.7998527    0.00000       Uiso       1.00
       O36          O  0.5068218  0.8761467  0.8464260    0.00000       Uiso       1.00
      H490          H  0.5385279  0.8477629  0.8563725    0.00000       Uiso       1.00
      H491          H  0.5768328  0.8241773  0.8492792    0.00000       Uiso       1.00
      H492          H  0.6004608  0.8441273  0.7804613    0.00000       Uiso       1.00
       B16          B  0.4898834  0.8918677  0.8398280    0.00000       Uiso       1.00
       B17          B  0.7141544  0.7572381  0.7953347    0.00000       Uiso       1.00
       B18          B  0.6696203  0.8468597  0.6156177    0.00000       Uiso       1.00
      C835          C  0.0223345  0.7947884  0.2231133    0.00000       Uiso       1.00
      C836          C  0.0396146  0.7997085  0.2107270    0.00000       Uiso       1.00
      C837          C  0.0353468  0.8215969  0.2083558    0.00000       Uiso       1.00
      C838          C  0.0528451  0.8261717  0.1950698    0.00000       Uiso       1.00
      C839          C  0.0749108  0.8091968  0.1826537    0.00000       Uiso       1.00
      C840          C  0.0788747  0.7873067  0.1850117    0.00000       Uiso       1.00
      C841          C  0.0618683  0.7819830  0.2001996    0.00000       Uiso       1.00
       O37          O  0.9997144  0.8101493  0.2336007    0.00000       Uiso       1.00
      H493          H  0.0950152  0.7745386  0.1740022    0.00000       Uiso       1.00
      C842          C  0.1834945  0.6475289  0.1644661    0.00000       Uiso       1.00
      C843          C  0.1613133  0.6647857  0.1742732    0.00000       Uiso       1.00
      C844          C  0.1437638  0.6604192  0.1894689    0.00000       Uiso       1.00
      C845          C  0.1216402  0.6778982  0.1984219    0.00000       Uiso       1.00
      C846          C  0.1164885  0.7000244  0.1912679    0.00000       Uiso       1.00
      C847          C  0.1343924  0.7040306  0.1756575    0.00000       Uiso       1.00
      C848          C  0.1567545  0.6870373  0.1683685    0.00000       Uiso       1.00
       O38          O  0.1906349  0.6249416  0.1678196    0.00000       Uiso       1.00
      H494          H  0.1473331  0.6434065  0.1944867    0.00000       Uiso       1.00
      H495          H  0.1087077  0.6738552  0.2108054    0.00000       Uiso       1.00
      H496          H  0.1309785  0.7202276  0.1681268    0.00000       Uiso       1.00
      C849          C  0.1695839  0.8086531  0.1198802    0.00000       Uiso       1.00
      C850          C  0.1745053  0.7864808  0.1247461    0.00000       Uiso       1.00
      C851          C  0.1964264  0.7689405  0.1180073    0.00000       Uiso       1.00
      C852          C  0.2010814  0.7468157  0.1222914    0.00000       Uiso       1.00
      C853          C  0.1841026  0.7416599  0.1321148    0.00000       Uiso       1.00
      C854          C  0.1621858  0.7595625  0.1384435    0.00000       Uiso       1.00
      C855          C  0.1568240  0.7819187  0.1365383    0.00000       Uiso       1.00
       O39          O  0.1850929  0.8157248  0.1078366    0.00000       Uiso       1.00
      H497          H  0.2098537  0.7725386  0.1095842    0.00000       Uiso       1.00
      H498          H  0.2180629  0.7339010  0.1176775    0.00000       Uiso       1.00
      H499          H  0.1493703  0.7561884  0.1437047    0.00000       Uiso       1.00
      C856          C  0.1480531  0.8259336  0.1264077    0.00000       Uiso       1.00
      C857          C  0.1300366  0.8221151  0.1389754    0.00000       Uiso       1.00
      C858          C  0.1080852  0.8396224  0.1457090    0.00000       Uiso       1.00
      C859          C  0.0903131  0.8354588  0.1590730    0.00000       Uiso       1.00
      C860          C  0.0938921  0.8139039  0.1672562    0.00000       Uiso       1.00
      C861          C  0.1160612  0.7965283  0.1605650    0.00000       Uiso       1.00
      C862          C  0.1343334  0.7999424  0.1451313    0.00000       Uiso       1.00
       O40          O  0.1467341  0.8465619  0.1198090    0.00000       Uiso       1.00
      H500          H  0.1190821  0.7805125  0.1684135    0.00000       Uiso       1.00
      C863          C  0.2007475  0.6518036  0.1494828    0.00000       Uiso       1.00
      C864          C  0.1969358  0.6736137  0.1440368    0.00000       Uiso       1.00
      C865          C  0.2145001  0.6779550  0.1288233    0.00000       Uiso       1.00
      C866          C  0.2103913  0.6998976  0.1242547    0.00000       Uiso       1.00
      C867          C  0.1888160  0.7179422  0.1358930    0.00000       Uiso       1.00
      C868          C  0.1714129  0.7131894  0.1514445    0.00000       Uiso       1.00
      C869          C  0.1747871  0.6915026  0.1544268    0.00000       Uiso       1.00
       O41          O  0.2214275  0.6325671  0.1414321    0.00000       Uiso       1.00
      H501          H  0.2313710  0.6642449  0.1203706    0.00000       Uiso       1.00
      H502          H  0.2242737  0.7025072  0.1116939    0.00000       Uiso       1.00
      H503          H  0.1553711  0.7262376  0.1622420    0.00000       Uiso       1.00
      C870          C  0.0266376  0.7732452  0.2253320    0.00000       Uiso       1.00
      C871          C  0.0484424  0.7552521  0.2160653    0.00000       Uiso       1.00
      C872          C  0.0527689  0.7333562  0.2184086    0.00000       Uiso       1.00
      C873          C  0.0747097  0.7155135  0.2097245    0.00000       Uiso       1.00
      C874          C  0.0927687  0.7190323  0.1997771    0.00000       Uiso       1.00
      C875          C  0.0880244  0.7411832  0.1979236    0.00000       Uiso       1.00
      C876          C  0.0663311  0.7594966  0.2042987    0.00000       Uiso       1.00
       O42          O  0.0074320  0.7717339  0.2378917    0.00000       Uiso       1.00
      H504          H  0.0390339  0.7302297  0.2268327    0.00000       Uiso       1.00
      H505          H  0.0772945  0.6990367  0.2110513    0.00000       Uiso       1.00
      H506          H  0.1010621  0.7442039  0.1926704    0.00000       Uiso       1.00
       B19          B  0.9904708  0.7953361  0.2429325    0.00000       Uiso       1.00
       B20          B  0.2147684  0.6156170  0.1531484    0.00000       Uiso       1.00
       B21          B  0.1702984  0.8398579  0.1080172    0.00000       Uiso       1.00
      H507          H  0.0184720  0.8351850  0.2169224    0.00000       Uiso       1.00
      H508          H  0.0488132  0.8431492  0.1944850    0.00000       Uiso       1.00
      H509          H  0.1046569  0.8565405  0.1404876    0.00000       Uiso       1.00
      H510          H  0.0738045  0.8493432  0.1630659    0.00000       Uiso       1.00
      C877          C  0.2125870  0.1178024  0.1914223    0.00000       Uiso       1.00
      C878          C  0.2043106  0.1211582  0.2136030    0.00000       Uiso       1.00
      C879          C  0.1933390  0.1102400  0.2311568    0.00000       Uiso       1.00
      C880          C  0.1842506  0.1146820  0.2532838    0.00000       Uiso       1.00
      C881          C  0.1847155  0.1311642  0.2584053    0.00000       Uiso       1.00
      C882          C  0.1955961  0.1421726  0.2405004    0.00000       Uiso       1.00
      C883          C  0.2069014  0.1362360  0.2181625    0.00000       Uiso       1.00
       O43          O  0.2108201  0.1041650  0.1842538    0.00000       Uiso       1.00
      H511          H  0.1919682  0.0981850  0.2275896    0.00000       Uiso       1.00
      H512          H  0.1767403  0.1052385  0.2662464    0.00000       Uiso       1.00
      H513          H  0.1941656  0.1563645  0.2438772    0.00000       Uiso       1.00
      C884          C  0.2570395  0.2205174  0.2053357    0.00000       Uiso       1.00
      C885          C  0.2536701  0.2066232  0.2004124    0.00000       Uiso       1.00
      C886          C  0.2645756  0.2000489  0.1785246    0.00000       Uiso       1.00
      C887          C  0.2601200  0.1870201  0.1738760    0.00000       Uiso       1.00
      C888          C  0.2436361  0.1814356  0.1908203    0.00000       Uiso       1.00
      C889          C  0.2326404  0.1884518  0.2127077    0.00000       Uiso       1.00
      C890          C  0.2385916  0.1994747  0.2180765    0.00000       Uiso       1.00
       O44          O  0.2706793  0.2294495  0.1899364    0.00000       Uiso       1.00
      H514          H  0.2766313  0.2049861  0.1651020    0.00000       Uiso       1.00
      H515          H  0.2695544  0.1815739  0.1569230    0.00000       Uiso       1.00
      H516          H  0.2184464  0.1865069  0.2254686    0.00000       Uiso       1.00
      C891          C  0.1543381  0.1621580  0.3524572    0.00000       Uiso       1.00
      C892          C  0.1682330  0.1704487  0.3351988    0.00000       Uiso       1.00
      C893          C  0.1748221  0.1814213  0.3395300    0.00000       Uiso       1.00
      C894          C  0.1878508  0.1905234  0.3220516    0.00000       Uiso       1.00
      C895          C  0.1934202  0.1900708  0.2999904    0.00000       Uiso       1.00
      C896          C  0.1863892  0.1791889  0.2960110    0.00000       Uiso       1.00
      C897          C  0.1753668  0.1678711  0.3129773    0.00000       Uiso       1.00
       O45          O  0.1454189  0.1639104  0.3750238    0.00000       Uiso       1.00
      H517          H  0.1698969  0.1827825  0.3565177    0.00000       Uiso       1.00
      H518          H  0.1933091  0.1980345  0.3260385    0.00000       Uiso       1.00
      H519          H  0.1883219  0.1806278  0.2798792    0.00000       Uiso       1.00
      C898          C  0.1474912  0.1517914  0.3482071    0.00000       Uiso       1.00
      C899          C  0.1552182  0.1478691  0.3264008    0.00000       Uiso       1.00
      C900          C  0.1486567  0.1368801  0.3220499    0.00000       Uiso       1.00
      C901          C  0.1574701  0.1321635  0.3001062    0.00000       Uiso       1.00
      C902          C  0.1740848  0.1370957  0.2820957    0.00000       Uiso       1.00
      C903          C  0.1806599  0.1479246  0.2868452    0.00000       Uiso       1.00
      C904          C  0.1702788  0.1549364  0.3085179    0.00000       Uiso       1.00
       O46          O  0.1333014  0.1453331  0.3674494    0.00000       Uiso       1.00
      H520          H  0.1365969  0.1320807  0.3357569    0.00000       Uiso       1.00
      H521          H  0.1512885  0.1244781  0.2974624    0.00000       Uiso       1.00
      H522          H  0.1948643  0.1497491  0.2738254    0.00000       Uiso       1.00
      C905          C  0.2459569  0.2273499  0.2267944    0.00000       Uiso       1.00
      C906          C  0.2318873  0.2196088  0.2447943    0.00000       Uiso       1.00
      C907          C  0.2209897  0.2261558  0.2666907    0.00000       Uiso       1.00
      C908          C  0.2078691  0.2173290  0.2845357    0.00000       Uiso       1.00
      C909          C  0.2064692  0.2007154  0.2810017    0.00000       Uiso       1.00
      C910          C  0.2177792  0.1941547  0.2588531    0.00000       Uiso       1.00
      C911          C  0.2290598  0.2045487  0.2405528    0.00000       Uiso       1.00
       O47          O  0.2510129  0.2415414  0.2281970    0.00000       Uiso       1.00
      H523          H  0.2226411  0.2382149  0.2698401    0.00000       Uiso       1.00
      H524          H  0.1990548  0.2234994  0.3010428    0.00000       Uiso       1.00
      H525          H  0.2189616  0.1799522  0.2558452    0.00000       Uiso       1.00
      C912          C  0.2229524  0.1288974  0.1742166    0.00000       Uiso       1.00
      C913          C  0.2268881  0.1429671  0.1780238    0.00000       Uiso       1.00
      C914          C  0.2378758  0.1538778  0.1604811    0.00000       Uiso       1.00
      C915          C  0.2426061  0.1669985  0.1645798    0.00000       Uiso       1.00
      C916          C  0.2376896  0.1683861  0.1861199    0.00000       Uiso       1.00
      C917          C  0.2268619  0.1570633  0.2035159    0.00000       Uiso       1.00
      C918          C  0.2198358  0.1457814  0.2001462    0.00000       Uiso       1.00
       O48          O  0.2293952  0.1238534  0.1535729    0.00000       Uiso       1.00
      H526          H  0.2426637  0.1522373  0.1436265    0.00000       Uiso       1.00
      H527          H  0.2502897  0.1758229  0.1507197    0.00000       Uiso       1.00
      H528          H  0.2250499  0.1558729  0.2195377    0.00000       Uiso       1.00
       B22          B  0.2215797  0.1081324  0.1601708    0.00000       Uiso       1.00
       B23          B  0.2667274  0.2427620  0.2046646    0.00000       Uiso       1.00
       B24          B  0.1320983  0.1531404  0.3843812    0.00000       Uiso       1.00
