data_25
_audit_creation_date              0000-00-00
_audit_creation_method            'LanYouShi'
_symmetry_space_group_name_H-M    'P1'
_cell_length_a                    84.9606018
_cell_length_b                    73.5671005
_cell_length_c                    73.5671005
_cell_angle_alpha                 109.4953995
_cell_angle_beta                  54.7295990
_cell_angle_gamma                 125.2705002
loop_
_atom_site_label
_atom_site_type_symbol
_atom_site_fract_x
_atom_site_fract_y
_atom_site_fract_z
_atom_site_U_iso_or_equiv
_atom_site_adp_type
_atom_site_occupancy
        C1          C  0.5000005  0.4999999  0.4999998    0.00000       Uiso       1.00
        C2          C  0.6357545  0.5308824  0.3238285    0.00000       Uiso       1.00
        C3          C  0.6126809  0.5203727  0.3317905    0.00000       Uiso       1.00
        C4          C  0.6050824  0.5122157  0.3163529    0.00000       Uiso       1.00
        C5          C  0.6203936  0.5147904  0.2932281    0.00000       Uiso       1.00
        C6          C  0.6435093  0.5255432  0.2852662    0.00000       Uiso       1.00
        C7          C  0.6511027  0.5335680  0.3006985    0.00000       Uiso       1.00
        H1          H  0.6420308  0.5369818  0.3353404    0.00000       Uiso       1.00
        H2          H  0.6688663  0.5418152  0.2949356    0.00000       Uiso       1.00
        H3          H  0.6141332  0.5083951  0.2816210    0.00000       Uiso       1.00
        C8          C  0.5759022  0.5555289  0.5923075    0.00000       Uiso       1.00
        C9          C  0.5713003  0.5404174  0.6048714    0.00000       Uiso       1.00
       C10          C  0.5907815  0.5785651  0.5928659    0.00000       Uiso       1.00
       C11          C  0.6011698  0.5863787  0.6056024    0.00000       Uiso       1.00
       C12          C  0.5967686  0.5712249  0.6179655    0.00000       Uiso       1.00
       C13          C  0.5817679  0.5481992  0.6175339    0.00000       Uiso       1.00
        H4          H  0.5596114  0.5226291  0.6050484    0.00000       Uiso       1.00
        H5          H  0.5780141  0.5361985  0.6270505    0.00000       Uiso       1.00
        H6          H  0.6126419  0.6042463  0.6057374    0.00000       Uiso       1.00
       C14          C  0.3873200  0.3317904  0.5203723    0.00000       Uiso       1.00
       C15          C  0.3642463  0.3238284  0.5308820    0.00000       Uiso       1.00
       C16          C  0.3949185  0.3163528  0.5122154    0.00000       Uiso       1.00
       C17          C  0.3796073  0.2932280  0.5147901    0.00000       Uiso       1.00
       C18          C  0.3564915  0.2852661  0.5255427    0.00000       Uiso       1.00
       C19          C  0.3488981  0.3006983  0.5335676    0.00000       Uiso       1.00
        H7          H  0.3579700  0.3353403  0.5369814    0.00000       Uiso       1.00
        H8          H  0.3311346  0.2949354  0.5418147    0.00000       Uiso       1.00
        H9          H  0.3858676  0.2816209  0.5083947    0.00000       Uiso       1.00
       C20          C  0.4240989  0.5923076  0.5555287    0.00000       Uiso       1.00
       C21          C  0.4287008  0.6048716  0.5404171    0.00000       Uiso       1.00
       C22          C  0.4092197  0.5928660  0.5785649    0.00000       Uiso       1.00
       C23          C  0.3988315  0.6056025  0.5863784    0.00000       Uiso       1.00
       C24          C  0.4032326  0.6179656  0.5712246    0.00000       Uiso       1.00
       C25          C  0.4182333  0.6175340  0.5481990    0.00000       Uiso       1.00
       H10          H  0.4403897  0.6050485  0.5226289    0.00000       Uiso       1.00
       H11          H  0.4219870  0.6270506  0.5361983    0.00000       Uiso       1.00
       H12          H  0.3873593  0.6057375  0.6042460    0.00000       Uiso       1.00
       C26          C  0.5957909  0.5953390  0.5796140    0.00000       Uiso       1.00
        O1          O  0.6087161  0.6152924  0.5801847    0.00000       Uiso       1.00
        O2          O  0.5859246  0.5880905  0.5672806    0.00000       Uiso       1.00
       H13          H  0.5907895  0.6005492  0.5601209    0.00000       Uiso       1.00
       C27          C  0.4199348  0.3245953  0.5004510    0.00000       Uiso       1.00
        O3          O  0.4263924  0.3110995  0.4934227    0.00000       Uiso       1.00
        O4          O  0.4348862  0.3467951  0.4978325    0.00000       Uiso       1.00
       H14          H  0.4496396  0.3490898  0.4902388    0.00000       Uiso       1.00
       C28          C  0.4042103  0.5796141  0.5953387    0.00000       Uiso       1.00
        O5          O  0.3912851  0.5801848  0.6152921    0.00000       Uiso       1.00
        O6          O  0.4140766  0.5672807  0.5880902    0.00000       Uiso       1.00
       H15          H  0.4092116  0.5601210  0.6005489    0.00000       Uiso       1.00
       C29          C  0.5800660  0.5004513  0.3245953    0.00000       Uiso       1.00
        O7          O  0.5736084  0.4934230  0.3110995    0.00000       Uiso       1.00
        O8          O  0.5651147  0.4978328  0.3467950    0.00000       Uiso       1.00
       H16          H  0.5503613  0.4902391  0.3490898    0.00000       Uiso       1.00
       C30          C  0.5828716  0.5088090  0.3945239    0.00000       Uiso       1.00
       C31          C  0.5641856  0.5110168  0.4035594    0.00000       Uiso       1.00
       C32          C  0.5612688  0.5162501  0.3892773    0.00000       Uiso       1.00
       C33          C  0.5770348  0.5193253  0.3661406    0.00000       Uiso       1.00
       C34          C  0.5959675  0.5172675  0.3567143    0.00000       Uiso       1.00
       C35          C  0.5985740  0.5119962  0.3713565    0.00000       Uiso       1.00
       H17          H  0.6126204  0.5099572  0.3647268    0.00000       Uiso       1.00
       H18          H  0.5746523  0.5236336  0.3555452    0.00000       Uiso       1.00
       C36          C  0.5432727  0.5322553  0.5531681    0.00000       Uiso       1.00
       C37          C  0.5314145  0.5226048  0.5740617    0.00000       Uiso       1.00
       C38          C  0.5657049  0.5494542  0.5450179    0.00000       Uiso       1.00
       C39          C  0.5761508  0.5568250  0.5577087    0.00000       Uiso       1.00
       C40          C  0.5645867  0.5473186  0.5786992    0.00000       Uiso       1.00
       C41          C  0.5420667  0.5300698  0.5865770    0.00000       Uiso       1.00
       H19          H  0.5326109  0.5226530  0.6026624    0.00000       Uiso       1.00
       H20          H  0.5934371  0.5698029  0.5510180    0.00000       Uiso       1.00
       C42          C  0.4358153  0.4035595  0.5110165    0.00000       Uiso       1.00
       C43          C  0.4171295  0.3945239  0.5088086    0.00000       Uiso       1.00
       C44          C  0.4387320  0.3892774  0.5162501    0.00000       Uiso       1.00
       C45          C  0.4229660  0.3661406  0.5193251    0.00000       Uiso       1.00
       C46          C  0.4040335  0.3567142  0.5172671    0.00000       Uiso       1.00
       C47          C  0.4014269  0.3713564  0.5119958    0.00000       Uiso       1.00
       H21          H  0.3873807  0.3647267  0.5099565    0.00000       Uiso       1.00
       H22          H  0.4253485  0.3555452  0.5236336    0.00000       Uiso       1.00
       C48          C  0.4567285  0.5531681  0.5322550    0.00000       Uiso       1.00
       C49          C  0.4685866  0.5740618  0.5226045    0.00000       Uiso       1.00
       C50          C  0.4342962  0.5450181  0.5494539    0.00000       Uiso       1.00
       C51          C  0.4238504  0.5577089  0.5568247    0.00000       Uiso       1.00
       C52          C  0.4354144  0.5786994  0.5473183    0.00000       Uiso       1.00
       C53          C  0.4579344  0.5865771  0.5300695    0.00000       Uiso       1.00
       H23          H  0.4673902  0.6026625  0.5226528    0.00000       Uiso       1.00
       H24          H  0.4065641  0.5510181  0.5698028    0.00000       Uiso       1.00
       C54          C  0.5853669  0.5032845  0.4089379    0.00000       Uiso       1.00
       C55          C  0.5696981  0.5000787  0.4318704    0.00000       Uiso       1.00
       C56          C  0.5424955  0.5182536  0.3985028    0.00000       Uiso       1.00
       C57          C  0.5269054  0.5151502  0.4214491    0.00000       Uiso       1.00
       C58          C  0.4575053  0.3985029  0.5182537    0.00000       Uiso       1.00
       C59          C  0.4730953  0.4214492  0.5151504    0.00000       Uiso       1.00
       C60          C  0.4227450  0.5242413  0.5590019    0.00000       Uiso       1.00
       C61          C  0.4332046  0.5117546  0.5516456    0.00000       Uiso       1.00
       C62          C  0.4910205  0.5820817  0.5056950    0.00000       Uiso       1.00
       C63          C  0.5014900  0.5696187  0.4984313    0.00000       Uiso       1.00
       H25          H  0.5005483  0.5980838  0.4980434    0.00000       Uiso       1.00
       H26          H  0.5187765  0.5763525  0.4853648    0.00000       Uiso       1.00
       H27          H  0.4055328  0.5175989  0.5722446    0.00000       Uiso       1.00
       H28          H  0.4237466  0.4958237  0.5593960    0.00000       Uiso       1.00
       H29          H  0.5126821  0.5168579  0.4279220    0.00000       Uiso       1.00
       H30          H  0.5398225  0.5222231  0.3879332    0.00000       Uiso       1.00
       H31          H  0.5722119  0.4958586  0.4424231    0.00000       Uiso       1.00
       H32          H  0.5994927  0.5014082  0.4024636    0.00000       Uiso       1.00
       H33          H  0.4873185  0.4279222  0.5168582    0.00000       Uiso       1.00
       H34          H  0.4601782  0.3879333  0.5222233    0.00000       Uiso       1.00
       C64          C  0.5353923  0.4994937  0.4642857    0.00000       Uiso       1.00
       C65          C  0.5171642  0.5029414  0.4740812    0.00000       Uiso       1.00
       C66          C  0.5141169  0.5071310  0.4591000    0.00000       Uiso       1.00
       C67          C  0.5296605  0.5100549  0.4359004    0.00000       Uiso       1.00
       C68          C  0.5483567  0.5079278  0.4269051    0.00000       Uiso       1.00
       C69          C  0.5511240  0.5024408  0.4411292    0.00000       Uiso       1.00
       H35          H  0.5375184  0.4947560  0.4748247    0.00000       Uiso       1.00
       H36          H  0.4995927  0.5082229  0.4654989    0.00000       Uiso       1.00
       C70          C  0.5116969  0.5087548  0.5142220    0.00000       Uiso       1.00
       C71          C  0.4998166  0.5003223  0.5358978    0.00000       Uiso       1.00
       C72          C  0.5339151  0.5267834  0.5069850    0.00000       Uiso       1.00
       C73          C  0.5444949  0.5344393  0.5196049    0.00000       Uiso       1.00
       C74          C  0.5326669  0.5247386  0.5404281    0.00000       Uiso       1.00
       C75          C  0.5101883  0.5077470  0.5486825    0.00000       Uiso       1.00
       H37          H  0.4824137  0.4876571  0.5427616    0.00000       Uiso       1.00
       H38          H  0.5431323  0.5349085  0.4913689    0.00000       Uiso       1.00
       C76          C  0.4828368  0.4740813  0.5029413    0.00000       Uiso       1.00
       C77          C  0.4646087  0.4642858  0.4994934    0.00000       Uiso       1.00
       C78          C  0.4858840  0.4591001  0.5071310    0.00000       Uiso       1.00
       C79          C  0.4703403  0.4359005  0.5100549    0.00000       Uiso       1.00
       C80          C  0.4516443  0.4269052  0.5079276    0.00000       Uiso       1.00
       C81          C  0.4488770  0.4411293  0.5024404    0.00000       Uiso       1.00
       H39          H  0.4624827  0.4748248  0.4947555    0.00000       Uiso       1.00
       H40          H  0.5004081  0.4654991  0.5082232    0.00000       Uiso       1.00
       C82          C  0.4883041  0.5142221  0.5087546    0.00000       Uiso       1.00
       C83          C  0.5001844  0.5358979  0.5003220    0.00000       Uiso       1.00
       C84          C  0.4660860  0.5069851  0.5267832    0.00000       Uiso       1.00
       C85          C  0.4555062  0.5196050  0.5344391    0.00000       Uiso       1.00
       C86          C  0.4673342  0.5404282  0.5247383    0.00000       Uiso       1.00
       C87          C  0.4898127  0.5486826  0.5077467    0.00000       Uiso       1.00
       H41          H  0.5175873  0.5427618  0.4876568    0.00000       Uiso       1.00
       H42          H  0.4568688  0.4913690  0.5349083    0.00000       Uiso       1.00
       C88          C  0.4985110  0.4984317  0.5696186    0.00000       Uiso       1.00
       C89          C  0.5089805  0.5056954  0.5820816    0.00000       Uiso       1.00
       C90          C  0.5667966  0.5516458  0.5117545    0.00000       Uiso       1.00
       C91          C  0.5772562  0.5590020  0.5242411    0.00000       Uiso       1.00
       C92          C  0.4303030  0.4318704  0.5000781    0.00000       Uiso       1.00
       C93          C  0.4146342  0.4089379  0.5032839    0.00000       Uiso       1.00
       H43          H  0.4994527  0.4980438  0.5980837    0.00000       Uiso       1.00
       H44          H  0.4812245  0.4853652  0.5763525    0.00000       Uiso       1.00
       H45          H  0.5762546  0.5593961  0.4958235    0.00000       Uiso       1.00
       H46          H  0.5944684  0.5722448  0.5175987    0.00000       Uiso       1.00
       H47          H  0.4277894  0.4424231  0.4958579    0.00000       Uiso       1.00
       H48          H  0.4005084  0.4024636  0.5014074    0.00000       Uiso       1.00
       C94          C  0.6251123  0.3749439  0.8748317    0.00000       Uiso       1.00
       C95          C  0.7300158  0.3036911  0.7389672    0.00000       Uiso       1.00
       C96          C  0.7174539  0.2990836  0.7620422    0.00000       Uiso       1.00
       C97          C  0.7180189  0.2842046  0.7696273    0.00000       Uiso       1.00
       C98          C  0.7307601  0.2738220  0.7543011    0.00000       Uiso       1.00
       C99          C  0.7431212  0.2782287  0.7311837    0.00000       Uiso       1.00
      C100          C  0.7426829  0.2932293  0.7236040    0.00000       Uiso       1.00
       H49          H  0.7301875  0.3153800  0.7327012    0.00000       Uiso       1.00
       H50          H  0.7521979  0.2969872  0.7058395    0.00000       Uiso       1.00
       H51          H  0.7309002  0.2623499  0.7605511    0.00000       Uiso       1.00
      C101          C  0.6454346  0.4876335  0.7990219    0.00000       Uiso       1.00
      C102          C  0.6559340  0.5107118  0.8036398    0.00000       Uiso       1.00
      C103          C  0.6372811  0.4800312  0.7841395    0.00000       Uiso       1.00
      C104          C  0.6398489  0.4953436  0.7737638    0.00000       Uiso       1.00
      C105          C  0.6505913  0.5184642  0.7781808    0.00000       Uiso       1.00
      C106          C  0.6586128  0.5260611  0.7931848    0.00000       Uiso       1.00
       H52          H  0.6620306  0.5169908  0.8153315    0.00000       Uiso       1.00
       H53          H  0.6668519  0.5438285  0.7969507    0.00000       Uiso       1.00
       H54          H  0.6334563  0.4890804  0.7622889    0.00000       Uiso       1.00
      C107          C  0.6806074  0.4508703  0.9875552    0.00000       Uiso       1.00
      C108          C  0.6654978  0.4462621  0.0106319    0.00000       Uiso       1.00
      C109          C  0.7036369  0.4657599  0.9799597    0.00000       Uiso       1.00
      C110          C  0.7114459  0.4761516  0.9952767    0.00000       Uiso       1.00
      C111          C  0.6962940  0.4717441  0.0183958    0.00000       Uiso       1.00
      C112          C  0.6732751  0.4567331  0.0259860    0.00000       Uiso       1.00
       H55          H  0.6477148  0.4345653  0.0169058    0.00000       Uiso       1.00
       H56          H  0.6612760  0.4529740  0.0437516    0.00000       Uiso       1.00
       H57          H  0.7293083  0.4876319  0.9890186    0.00000       Uiso       1.00
      C113          C  0.4569532  0.2621881  0.9507076    0.00000       Uiso       1.00
      C114          C  0.4490015  0.2391109  0.9460887    0.00000       Uiso       1.00
      C115          C  0.4415122  0.2697797  0.9656006    0.00000       Uiso       1.00
      C116          C  0.4183943  0.2544582  0.9759855    0.00000       Uiso       1.00
      C117          C  0.4104426  0.2313388  0.9715673    0.00000       Uiso       1.00
      C118          C  0.4258783  0.2237524  0.9565528    0.00000       Uiso       1.00
       H58          H  0.4605162  0.2328397  0.9343891    0.00000       Uiso       1.00
       H59          H  0.4201233  0.2059862  0.9527858    0.00000       Uiso       1.00
       H60          H  0.4067843  0.2607133  0.9874684    0.00000       Uiso       1.00
      C119          C  0.6255277  0.4550097  0.7791130    0.00000       Uiso       1.00
        O9          O  0.6185024  0.4485489  0.7661852    0.00000       Uiso       1.00
       O10          O  0.6229166  0.4400572  0.7889671    0.00000       Uiso       1.00
       H61          H  0.6153296  0.4253004  0.7840923    0.00000       Uiso       1.00
      C120          C  0.7204085  0.4707769  0.9549404    0.00000       Uiso       1.00
       O11          O  0.7403563  0.4837110  0.9484854    0.00000       Uiso       1.00
       O12          O  0.7131646  0.4609068  0.9399835    0.00000       Uiso       1.00
       H62          H  0.7256210  0.4657773  0.9252288    0.00000       Uiso       1.00
      C121          C  0.4497435  0.2947997  0.9706287    0.00000       Uiso       1.00
       O13          O  0.4362448  0.3012513  0.9835657    0.00000       Uiso       1.00
       O14          O  0.4719366  0.3097610  0.9607658    0.00000       Uiso       1.00
       H63          H  0.4742248  0.3245154  0.9656430    0.00000       Uiso       1.00
      C122          C  0.7047693  0.2791892  0.7946450    0.00000       Uiso       1.00
       O15          O  0.7053456  0.2662643  0.8010908    0.00000       Uiso       1.00
       O16          O  0.6924320  0.2890505  0.8096107    0.00000       Uiso       1.00
       H64          H  0.6852745  0.2841824  0.8243629    0.00000       Uiso       1.00
      C123          C  0.6991883  0.3435631  0.7918996    0.00000       Uiso       1.00
      C124          C  0.6782999  0.3316956  0.8105842    0.00000       Uiso       1.00
      C125          C  0.6701598  0.3092597  0.8134845    0.00000       Uiso       1.00
      C126          C  0.6828552  0.2988194  0.7977036    0.00000       Uiso       1.00
      C127          C  0.7038406  0.3103930  0.7787719    0.00000       Uiso       1.00
      C128          C  0.7117084  0.3329166  0.7761819    0.00000       Uiso       1.00
       H65          H  0.7277895  0.3423795  0.7621369    0.00000       Uiso       1.00
       H66          H  0.6761721  0.2815302  0.8000737    0.00000       Uiso       1.00
      C129          C  0.6361004  0.4391339  0.8316122    0.00000       Uiso       1.00
      C130          C  0.6338844  0.4578189  0.8434881    0.00000       Uiso       1.00
      C131          C  0.6413351  0.4362194  0.8091750    0.00000       Uiso       1.00
      C132          C  0.6444031  0.4519868  0.7987418    0.00000       Uiso       1.00
      C133          C  0.6423368  0.4709186  0.8103238    0.00000       Uiso       1.00
      C134          C  0.6370645  0.4735228  0.8328485    0.00000       Uiso       1.00
       H67          H  0.6350192  0.4875683  0.8423178    0.00000       Uiso       1.00
       H68          H  0.6487124  0.4496062  0.7814516    0.00000       Uiso       1.00
      C135          C  0.6573482  0.4182304  0.9390411    0.00000       Uiso       1.00
      C136          C  0.6477032  0.4063678  0.9577207    0.00000       Uiso       1.00
      C137          C  0.6745370  0.4406704  0.9361369    0.00000       Uiso       1.00
      C138          C  0.6819032  0.4511196  0.9519089    0.00000       Uiso       1.00
      C139          C  0.6724021  0.4395512  0.9708353    0.00000       Uiso       1.00
      C140          C  0.6551635  0.4170234  0.9734294    0.00000       Uiso       1.00
       H69          H  0.6477512  0.4075643  0.9874704    0.00000       Uiso       1.00
       H70          H  0.6948733  0.4684117  0.9495361    0.00000       Uiso       1.00
      C141          C  0.5287006  0.3107156  0.9180895    0.00000       Uiso       1.00
      C142          C  0.5196734  0.2920255  0.9062187    0.00000       Uiso       1.00
      C143          C  0.5144172  0.3136260  0.9405307    0.00000       Uiso       1.00
      C144          C  0.4912874  0.2978497  0.9509729    0.00000       Uiso       1.00
      C145          C  0.4818695  0.2789127  0.9393960    0.00000       Uiso       1.00
      C146          C  0.4965129  0.2763126  0.9168671    0.00000       Uiso       1.00
       H71          H  0.4898896  0.2622633  0.9074018    0.00000       Uiso       1.00
       H72          H  0.4806910  0.3002275  0.9682659    0.00000       Uiso       1.00
      C147          C  0.7071982  0.3660007  0.7894207    0.00000       Uiso       1.00
      C148          C  0.6947305  0.3764646  0.8051044    0.00000       Uiso       1.00
      C149          C  0.6493881  0.2976991  0.8322569    0.00000       Uiso       1.00
      C150          C  0.6368968  0.3081531  0.8478618    0.00000       Uiso       1.00
      C151          C  0.6840796  0.4522260  0.9173697    0.00000       Uiso       1.00
      C152          C  0.6767280  0.4417631  0.9017736    0.00000       Uiso       1.00
      C153          C  0.5236343  0.3324035  0.9520946    0.00000       Uiso       1.00
      C154          C  0.5465736  0.3480039  0.9416387    0.00000       Uiso       1.00
      C155          C  0.5340886  0.2895365  0.8837761    0.00000       Uiso       1.00
      C156          C  0.5570141  0.3052156  0.8733104    0.00000       Uiso       1.00
       H73          H  0.5276206  0.2754077  0.8742386    0.00000       Uiso       1.00
       H74          H  0.5675678  0.3027065  0.8560169    0.00000       Uiso       1.00
       H75          H  0.5130634  0.3350719  0.9693138    0.00000       Uiso       1.00
       H76          H  0.5530401  0.3622301  0.9511065    0.00000       Uiso       1.00
       H77          H  0.6209701  0.2986880  0.8620837    0.00000       Uiso       1.00
       H78          H  0.6427533  0.2804840  0.8349174    0.00000       Uiso       1.00
       H79          H  0.7014567  0.3937541  0.8026032    0.00000       Uiso       1.00
       H80          H  0.7231961  0.3755357  0.7752963    0.00000       Uiso       1.00
       H81          H  0.6844739  0.4512247  0.8875554    0.00000       Uiso       1.00
       H82          H  0.6973144  0.4694442  0.9147063    0.00000       Uiso       1.00
      C157          C  0.6610102  0.3751439  0.8394241    0.00000       Uiso       1.00
      C158          C  0.6393397  0.3632538  0.8576512    0.00000       Uiso       1.00
      C159          C  0.6321127  0.3410324  0.8606820    0.00000       Uiso       1.00
      C160          C  0.6447373  0.3304583  0.8451232    0.00000       Uiso       1.00
      C161          C  0.6655552  0.3422956  0.8264284    0.00000       Uiso       1.00
      C162          C  0.6737995  0.3647778  0.8236774    0.00000       Uiso       1.00
       H83          H  0.6678663  0.3925498  0.8373104    0.00000       Uiso       1.00
       H84          H  0.6165007  0.3318083  0.8752048    0.00000       Uiso       1.00
      C163          C  0.6280462  0.3921089  0.8631494    0.00000       Uiso       1.00
      C164          C  0.6245902  0.4103354  0.8750476    0.00000       Uiso       1.00
      C165          C  0.6322371  0.3890634  0.8409266    0.00000       Uiso       1.00
      C166          C  0.6351539  0.4046085  0.8303595    0.00000       Uiso       1.00
      C167          C  0.6330184  0.4233036  0.8422052    0.00000       Uiso       1.00
      C168          C  0.6275303  0.4260685  0.8646886    0.00000       Uiso       1.00
       H85          H  0.6198515  0.4124594  0.8924545    0.00000       Uiso       1.00
       H86          H  0.6333356  0.3745399  0.8316960    0.00000       Uiso       1.00
      C169          C  0.6338620  0.3866442  0.8920020    0.00000       Uiso       1.00
      C170          C  0.6254348  0.3747601  0.9102232    0.00000       Uiso       1.00
      C171          C  0.6518804  0.4088705  0.8889666    0.00000       Uiso       1.00
      C172          C  0.6595316  0.4194537  0.9045164    0.00000       Uiso       1.00
      C173          C  0.6498362  0.4076214  0.9232061    0.00000       Uiso       1.00
      C174          C  0.6328549  0.3851351  0.9259608    0.00000       Uiso       1.00
       H87          H  0.6127775  0.3573515  0.9123393    0.00000       Uiso       1.00
       H88          H  0.6600015  0.4180913  0.8744472    0.00000       Uiso       1.00
      C175          C  0.5992013  0.3577685  0.8865244    0.00000       Uiso       1.00
      C176          C  0.5894141  0.3395360  0.8746322    0.00000       Uiso       1.00
      C177          C  0.5842188  0.3608092  0.9087519    0.00000       Uiso       1.00
      C178          C  0.5610262  0.3452551  0.9193281    0.00000       Uiso       1.00
      C179          C  0.5520393  0.3265550  0.9074875    0.00000       Uiso       1.00
      C180          C  0.5662646  0.3237939  0.8850002    0.00000       Uiso       1.00
       H89          H  0.5999540  0.3374146  0.8572227    0.00000       Uiso       1.00
       H90          H  0.5906113  0.3753361  0.9179792    0.00000       Uiso       1.00
      C181          C  0.6251599  0.4446415  0.8763836    0.00000       Uiso       1.00
      C182          C  0.6283587  0.4603118  0.8659267    0.00000       Uiso       1.00
      C183          C  0.6402505  0.4018556  0.8080531    0.00000       Uiso       1.00
      C184          C  0.6433468  0.4174470  0.7976061    0.00000       Uiso       1.00
      C185          C  0.6235449  0.3734535  0.9445286    0.00000       Uiso       1.00
      C186          C  0.6308040  0.3839263  0.9602034    0.00000       Uiso       1.00
       H91          H  0.6264762  0.4744368  0.8754680    0.00000       Uiso       1.00
       H92          H  0.6209387  0.4471534  0.8936743    0.00000       Uiso       1.00
       H93          H  0.6419646  0.3876331  0.7985816    0.00000       Uiso       1.00
       H94          H  0.6473175  0.4147758  0.7803898    0.00000       Uiso       1.00
       H95          H  0.6104864  0.3561611  0.9470326    0.00000       Uiso       1.00
       H96          H  0.6231568  0.3743950  0.9743241    0.00000       Uiso       1.00
      C187          C  0.8750002  0.0000559  0.7501676    0.00000       Uiso       1.00
      C188          C  0.0511384  0.0404265  0.6452215    0.00000       Uiso       1.00
      C189          C  0.0431773  0.0555437  0.6578005    0.00000       Uiso       1.00
      C190          C  0.0586111  0.0785796  0.6572492    0.00000       Uiso       1.00
      C191          C  0.0817313  0.0863875  0.6445046    0.00000       Uiso       1.00
      C192          C  0.0896925  0.0712282  0.6321264    0.00000       Uiso       1.00
      C193          C  0.0742640  0.0482027  0.6325509    0.00000       Uiso       1.00
       H97          H  0.0396292  0.0226382  0.6450390    0.00000       Uiso       1.00
       H98          H  0.0800263  0.0361977  0.6230227    0.00000       Uiso       1.00
       H99          H  0.0933355  0.1042550  0.6443753    0.00000       Uiso       1.00
      C194          C  0.7827088  0.8318375  0.7297361    0.00000       Uiso       1.00
      C195          C  0.7701334  0.8238708  0.7192353    0.00000       Uiso       1.00
      C196          C  0.7821643  0.8164035  0.7378761    0.00000       Uiso       1.00
      C197          C  0.7694302  0.7932776  0.7352933    0.00000       Uiso       1.00
      C198          C  0.7570555  0.7853109  0.7245494    0.00000       Uiso       1.00
      C199          C  0.7574732  0.8007395  0.7165415    0.00000       Uiso       1.00
      H100          H  0.7699459  0.8353800  0.7131490    0.00000       Uiso       1.00
      H101          H  0.7479476  0.7949730  0.7083014    0.00000       Uiso       1.00
      H102          H  0.7693061  0.7816733  0.7416755    0.00000       Uiso       1.00
      C200          C  0.8545276  0.0923389  0.6947643    0.00000       Uiso       1.00
      C201          C  0.8440211  0.1049096  0.7098898    0.00000       Uiso       1.00
      C202          C  0.8626673  0.0928869  0.6717317    0.00000       Uiso       1.00
      C203          C  0.8600788  0.1056200  0.6639353    0.00000       Uiso       1.00
      C204          C  0.8493293  0.1179898  0.6791030    0.00000       Uiso       1.00
      C205          C  0.8413216  0.1175686  0.7021251    0.00000       Uiso       1.00
      H103          H  0.8379348  0.1050944  0.7276756    0.00000       Uiso       1.00
      H104          H  0.8330773  0.1270905  0.7141364    0.00000       Uiso       1.00
      H105          H  0.8664609  0.1057469  0.6460702    0.00000       Uiso       1.00
      C206          C  0.8195878  0.0205038  0.9183695    0.00000       Uiso       1.00
      C207          C  0.8347085  0.0310170  0.9263240    0.00000       Uiso       1.00
      C208          C  0.7965587  0.0123537  0.9338136    0.00000       Uiso       1.00
      C209          C  0.7887612  0.0149387  0.9569373    0.00000       Uiso       1.00
      C210          C  0.8039241  0.0256950  0.9648917    0.00000       Uiso       1.00
      C211          C  0.8269427  0.0337130  0.9494529    0.00000       Uiso       1.00
      H106          H  0.8524917  0.0371113  0.9148067    0.00000       Uiso       1.00
      H107          H  0.8389502  0.0419627  0.9552099    0.00000       Uiso       1.00
      H108          H  0.7708990  0.0085486  0.9685495    0.00000       Uiso       1.00
      C212          C  0.7954291  0.8246513  0.7496307    0.00000       Uiso       1.00
       O17          O  0.7948706  0.8111586  0.7566443    0.00000       Uiso       1.00
       O18          O  0.8077604  0.8468522  0.7522563    0.00000       Uiso       1.00
      H109          H  0.8149291  0.8491504  0.7598423    0.00000       Uiso       1.00
      C213          C  0.8744279  0.0796276  0.6549429    0.00000       Uiso       1.00
       O19          O  0.8814412  0.0801893  0.6349927    0.00000       Uiso       1.00
       O20          O  0.8770595  0.0672979  0.6621747    0.00000       Uiso       1.00
      H110          H  0.8846487  0.0601326  0.6497084    0.00000       Uiso       1.00
      C214          C  0.7797753  0.0005856  0.9255792    0.00000       Uiso       1.00
       O21          O  0.7598290  0.9935635  0.9390806    0.00000       Uiso       1.00
       O22          O  0.7870091  0.9979579  0.9033807    0.00000       Uiso       1.00
      H111          H  0.7745463  0.9903633  0.9010913    0.00000       Uiso       1.00
      C215          C  0.0503693  0.0953594  0.6705174    0.00000       Uiso       1.00
       O23          O  0.0638617  0.1153126  0.6699529    0.00000       Uiso       1.00
       O24          O  0.0281739  0.0881166  0.6828582    0.00000       Uiso       1.00
      H112          H  0.0258790  0.1005784  0.6900279    0.00000       Uiso       1.00
      C216          C  0.9804469  0.0226277  0.6760647    0.00000       Uiso       1.00
      C217          C  0.9714218  0.0322875  0.6969657    0.00000       Uiso       1.00
      C218          C  0.9857098  0.0494900  0.7051148    0.00000       Uiso       1.00
      C219          C  0.0088422  0.0568552  0.6924156    0.00000       Uiso       1.00
      C220          C  0.0182582  0.0473395  0.6714176    0.00000       Uiso       1.00
      C221          C  0.0036101  0.0300871  0.6635409    0.00000       Uiso       1.00
      H113          H  0.0102317  0.0226633  0.6474501    0.00000       Uiso       1.00
      H114          H  0.0194425  0.0698361  0.6991056    0.00000       Uiso       1.00
      C222          C  0.8218421  0.9036108  0.7391170    0.00000       Uiso       1.00
      C223          C  0.8009451  0.8945761  0.7413344    0.00000       Uiso       1.00
      C224          C  0.8299977  0.8893263  0.7338659    0.00000       Uiso       1.00
      C225          C  0.8173087  0.8661881  0.7307829    0.00000       Uiso       1.00
      C226          C  0.7963149  0.8567628  0.7328501    0.00000       Uiso       1.00
      C227          C  0.7884317  0.8714073  0.7381390    0.00000       Uiso       1.00
      H115          H  0.7723439  0.8647785  0.7401856    0.00000       Uiso       1.00
      H116          H  0.8240033  0.8555908  0.7264611    0.00000       Uiso       1.00
      C228          C  0.8639259  0.0532098  0.7179843    0.00000       Uiso       1.00
      C229          C  0.8661341  0.0741079  0.7276469    0.00000       Uiso       1.00
      C230          C  0.8586783  0.0450519  0.7007905    0.00000       Uiso       1.00
      C231          C  0.8555895  0.0577394  0.6934371    0.00000       Uiso       1.00
      C232          C  0.8576475  0.0787343  0.7029560    0.00000       Uiso       1.00
      C233          C  0.8629332  0.0866199  0.7201993    0.00000       Uiso       1.00
      H117          H  0.8649727  0.1027087  0.7276251    0.00000       Uiso       1.00
      H118          H  0.8512705  0.0510427  0.6804630    0.00000       Uiso       1.00
      C234          C  0.8428119  0.0111159  0.8466035    0.00000       Uiso       1.00
      C235          C  0.8524758  0.0089123  0.8556243    0.00000       Uiso       1.00
      C236          C  0.8256156  0.0163555  0.8608993    0.00000       Uiso       1.00
      C237          C  0.8182608  0.0194409  0.8840351    0.00000       Uiso       1.00
      C238          C  0.8277809  0.0173874  0.8934468    0.00000       Uiso       1.00
      C239          C  0.8450267  0.0121098  0.8787910    0.00000       Uiso       1.00
      H119          H  0.8524536  0.0100738  0.8854092    0.00000       Uiso       1.00
      H120          H  0.8052846  0.0237539  0.8946412    0.00000       Uiso       1.00
      C240          C  0.9660268  0.0057148  0.6680461    0.00000       Uiso       1.00
      C241          C  0.9430993  0.9984568  0.6805176    0.00000       Uiso       1.00
      C242          C  0.9764945  0.0590472  0.7258992    0.00000       Uiso       1.00
      C243          C  0.9535525  0.0516965  0.7383941    0.00000       Uiso       1.00
      C244          C  0.8566744  0.0242707  0.6912303    0.00000       Uiso       1.00
      C245          C  0.8597913  0.0117873  0.6985693    0.00000       Uiso       1.00
      C246          C  0.8160543  0.0183547  0.8516883    0.00000       Uiso       1.00
      C247          C  0.8233947  0.0152411  0.8287429    0.00000       Uiso       1.00
      C248          C  0.8693824  0.0033814  0.8411967    0.00000       Uiso       1.00
      C249          C  0.8766303  0.0001654  0.8182651    0.00000       Uiso       1.00
      H121          H  0.8770441  0.0015082  0.8476596    0.00000       Uiso       1.00
      H122          H  0.8896959  0.9959409  0.8077017    0.00000       Uiso       1.00
      H123          H  0.8028133  0.0223288  0.8622686    0.00000       Uiso       1.00
      H124          H  0.8156343  0.0169458  0.8222813    0.00000       Uiso       1.00
      H125          H  0.9470874  0.0594539  0.7543306    0.00000       Uiso       1.00
      H126          H  0.9870690  0.0722928  0.7325410    0.00000       Uiso       1.00
      H127          H  0.9325418  0.9853873  0.6737844    0.00000       Uiso       1.00
      H128          H  0.9724939  0.9980562  0.6520386    0.00000       Uiso       1.00
      H129          H  0.8580838  0.9958531  0.6908098    0.00000       Uiso       1.00
      H130          H  0.8526941  0.0176223  0.6779913    0.00000       Uiso       1.00
      C250          C  0.9106981  0.0003622  0.7142540    0.00000       Uiso       1.00
      C251          C  0.9009137  0.0088045  0.7359364    0.00000       Uiso       1.00
      C252          C  0.9159001  0.0268363  0.7431729    0.00000       Uiso       1.00
      C253          C  0.9390954  0.0344865  0.7305448    0.00000       Uiso       1.00
      C254          C  0.9480804  0.0247764  0.7097142    0.00000       Uiso       1.00
      C255          C  0.9338500  0.0077812  0.7014610    0.00000       Uiso       1.00
      H131          H  0.9001546  0.9876941  0.7073913    0.00000       Uiso       1.00
      H132          H  0.9095086  0.0349684  0.7587950    0.00000       Uiso       1.00
      C256          C  0.8607814  0.9741362  0.7472169    0.00000       Uiso       1.00
      C257          C  0.8391033  0.9643422  0.7506738    0.00000       Uiso       1.00
      C258          C  0.8680246  0.9591531  0.7430093    0.00000       Uiso       1.00
      C259          C  0.8554068  0.9359522  0.7400773    0.00000       Uiso       1.00
      C260          C  0.8345802  0.9269578  0.7422141    0.00000       Uiso       1.00
      C261          C  0.8263206  0.9411845  0.7477188    0.00000       Uiso       1.00
      H133          H  0.8322359  0.9748834  0.7554250    0.00000       Uiso       1.00
      H134          H  0.8836439  0.9655516  0.7419095    0.00000       Uiso       1.00
      C262          C  0.8720431  0.0142742  0.7414320    0.00000       Uiso       1.00
      C263          C  0.8754904  0.0359538  0.7498771    0.00000       Uiso       1.00
      C264          C  0.8678386  0.0070291  0.7234089    0.00000       Uiso       1.00
      C265          C  0.8649009  0.0196455  0.7157704    0.00000       Uiso       1.00
      C266          C  0.8670286  0.0404732  0.7254835    0.00000       Uiso       1.00
      C267          C  0.8725298  0.0487352  0.7424697    0.00000       Uiso       1.00
      H135          H  0.8802387  0.0428234  0.7625383    0.00000       Uiso       1.00
      H136          H  0.8667466  0.9914095  0.7152745    0.00000       Uiso       1.00
      C268          C  0.8662632  0.0030090  0.7760851    0.00000       Uiso       1.00
      C269          C  0.8747109  0.9995660  0.7858655    0.00000       Uiso       1.00
      C270          C  0.8482382  0.0072053  0.7910794    0.00000       Uiso       1.00
      C271          C  0.8405983  0.0101395  0.8142781    0.00000       Uiso       1.00
      C272          C  0.8503125  0.0080165  0.8232588    0.00000       Uiso       1.00
      C273          C  0.8673014  0.0025232  0.8090208    0.00000       Uiso       1.00
      H137          H  0.8873744  0.9948236  0.7753156    0.00000       Uiso       1.00
      H138          H  0.8401032  0.0082944  0.7846916    0.00000       Uiso       1.00
      C274          C  0.8053814  0.9319266  0.7500902    0.00000       Uiso       1.00
      C275          C  0.7929201  0.9089926  0.7468765    0.00000       Uiso       1.00
      C276          C  0.8632627  0.9214986  0.7349644    0.00000       Uiso       1.00
      C277          C  0.8507777  0.8985509  0.7318531    0.00000       Uiso       1.00
      C278          C  0.8748921  0.0696757  0.7517973    0.00000       Uiso       1.00
      C279          C  0.8716728  0.0821355  0.7445508    0.00000       Uiso       1.00
      H139          H  0.7769155  0.9025192  0.7487603    0.00000       Uiso       1.00
      H140          H  0.7986435  0.9424812  0.7543239    0.00000       Uiso       1.00
      H141          H  0.8791963  0.9279708  0.7332490    0.00000       Uiso       1.00
      H142          H  0.8574244  0.8879794  0.7278700    0.00000       Uiso       1.00
      H143          H  0.8791229  0.0764155  0.7648600    0.00000       Uiso       1.00
      H144          H  0.8735498  0.0981411  0.7522115    0.00000       Uiso       1.00
      C280          C  0.3748889  0.8748321  0.3749438    0.00000       Uiso       1.00
      C281          C  0.2699853  0.7389674  0.3036909    0.00000       Uiso       1.00
      C282          C  0.2825471  0.7620425  0.2990834    0.00000       Uiso       1.00
      C283          C  0.2819822  0.7696275  0.2842045    0.00000       Uiso       1.00
      C284          C  0.2692409  0.7543012  0.2738219    0.00000       Uiso       1.00
      C285          C  0.2568799  0.7311839  0.2782285    0.00000       Uiso       1.00
      C286          C  0.2573181  0.7236042  0.2932291    0.00000       Uiso       1.00
      H145          H  0.2698136  0.7327014  0.3153798    0.00000       Uiso       1.00
      H146          H  0.2478032  0.7058396  0.2969870    0.00000       Uiso       1.00
      H147          H  0.2691009  0.7605513  0.2623498    0.00000       Uiso       1.00
      C287          C  0.3545666  0.7990221  0.4876333    0.00000       Uiso       1.00
      C288          C  0.3440673  0.8036400  0.5107116    0.00000       Uiso       1.00
      C289          C  0.3627202  0.7841398  0.4800311    0.00000       Uiso       1.00
      C290          C  0.3601523  0.7737641  0.4953434    0.00000       Uiso       1.00
      C291          C  0.3494100  0.7781811  0.5184640    0.00000       Uiso       1.00
      C292          C  0.3413886  0.7931850  0.5260609    0.00000       Uiso       1.00
      H148          H  0.3379707  0.8153316  0.5169906    0.00000       Uiso       1.00
      H149          H  0.3331494  0.7969509  0.5438282    0.00000       Uiso       1.00
      H150          H  0.3665449  0.7622891  0.4890802    0.00000       Uiso       1.00
      C293          C  0.3193940  0.9875556  0.4508702    0.00000       Uiso       1.00
      C294          C  0.3345026  0.0106316  0.4462616    0.00000       Uiso       1.00
      C295          C  0.2963645  0.9799600  0.4657598    0.00000       Uiso       1.00
      C296          C  0.2885556  0.9952770  0.4761515    0.00000       Uiso       1.00
      C297          C  0.3037066  0.0183955  0.4717436    0.00000       Uiso       1.00
      C298          C  0.3267255  0.0259857  0.4567326    0.00000       Uiso       1.00
      H151          H  0.3522857  0.0169055  0.4345648    0.00000       Uiso       1.00
      H152          H  0.3387246  0.0437513  0.4529736    0.00000       Uiso       1.00
      H153          H  0.2706932  0.9890189  0.4876316    0.00000       Uiso       1.00
      C299          C  0.5430480  0.9507083  0.2621883    0.00000       Uiso       1.00
      C300          C  0.5509997  0.9460893  0.2391112    0.00000       Uiso       1.00
      C301          C  0.5584890  0.9656013  0.2697800    0.00000       Uiso       1.00
      C302          C  0.5816069  0.9759861  0.2544584    0.00000       Uiso       1.00
      C303          C  0.5895585  0.9715679  0.2313391    0.00000       Uiso       1.00
      C304          C  0.5741228  0.9565535  0.2237527    0.00000       Uiso       1.00
      H154          H  0.5394850  0.9343897  0.2328400    0.00000       Uiso       1.00
      H155          H  0.5798778  0.9527865  0.2059865    0.00000       Uiso       1.00
      H156          H  0.5932169  0.9874691  0.2607136    0.00000       Uiso       1.00
      C305          C  0.3744734  0.7791132  0.4550095    0.00000       Uiso       1.00
       O25          O  0.3814988  0.7661855  0.4485488    0.00000       Uiso       1.00
       O26          O  0.3770846  0.7889673  0.4400570    0.00000       Uiso       1.00
      H157          H  0.3846717  0.7840926  0.4253003    0.00000       Uiso       1.00
      C306          C  0.2795928  0.9549407  0.4707767    0.00000       Uiso       1.00
       O27          O  0.2596452  0.9484857  0.4837108    0.00000       Uiso       1.00
       O28          O  0.2868368  0.9399837  0.4609066    0.00000       Uiso       1.00
      H158          H  0.2743803  0.9252291  0.4657771    0.00000       Uiso       1.00
      C307          C  0.5502577  0.9706294  0.2948000    0.00000       Uiso       1.00
       O29          O  0.5637565  0.9835664  0.3012516    0.00000       Uiso       1.00
       O30          O  0.5280647  0.9607664  0.3097612    0.00000       Uiso       1.00
      H159          H  0.5257765  0.9656436  0.3245156    0.00000       Uiso       1.00
      C308          C  0.2952318  0.7946452  0.2791891    0.00000       Uiso       1.00
       O31          O  0.2946554  0.8010911  0.2662642    0.00000       Uiso       1.00
       O32          O  0.3075691  0.8096110  0.2890504    0.00000       Uiso       1.00
      H160          H  0.3147267  0.8243632  0.2841823    0.00000       Uiso       1.00
      C309          C  0.3008128  0.7918998  0.3435630    0.00000       Uiso       1.00
      C310          C  0.3217012  0.8105845  0.3316955    0.00000       Uiso       1.00
      C311          C  0.3298414  0.8134849  0.3092596    0.00000       Uiso       1.00
      C312          C  0.3171459  0.7977039  0.2988193    0.00000       Uiso       1.00
      C313          C  0.2961605  0.7787722  0.3103929    0.00000       Uiso       1.00
      C314          C  0.2882928  0.7761822  0.3329164    0.00000       Uiso       1.00
      H161          H  0.2722116  0.7621371  0.3423793    0.00000       Uiso       1.00
      H162          H  0.3238290  0.8000740  0.2815301    0.00000       Uiso       1.00
      C315          C  0.3639009  0.8316125  0.4391338    0.00000       Uiso       1.00
      C316          C  0.3661170  0.8434884  0.4578187    0.00000       Uiso       1.00
      C317          C  0.3586662  0.8091753  0.4362193    0.00000       Uiso       1.00
      C318          C  0.3555981  0.7987421  0.4519866    0.00000       Uiso       1.00
      C319          C  0.3576644  0.8103241  0.4709184    0.00000       Uiso       1.00
      C320          C  0.3629367  0.8328488  0.4735227    0.00000       Uiso       1.00
      H163          H  0.3649821  0.8423181  0.4875681    0.00000       Uiso       1.00
      H164          H  0.3512887  0.7814518  0.4496060    0.00000       Uiso       1.00
      C321          C  0.3426531  0.9390415  0.4182303    0.00000       Uiso       1.00
      C322          C  0.3522981  0.9577211  0.4063678    0.00000       Uiso       1.00
      C323          C  0.3254643  0.9361371  0.4406703    0.00000       Uiso       1.00
      C324          C  0.3180982  0.9519092  0.4511195    0.00000       Uiso       1.00
      C325          C  0.3275993  0.9708357  0.4395511    0.00000       Uiso       1.00
      C326          C  0.3448379  0.9734298  0.4170233    0.00000       Uiso       1.00
      H165          H  0.3522502  0.9874709  0.4075642    0.00000       Uiso       1.00
      H166          H  0.3051281  0.9495364  0.4684116    0.00000       Uiso       1.00
      C327          C  0.4713006  0.9180900  0.3107157    0.00000       Uiso       1.00
      C328          C  0.4803278  0.9062192  0.2920256    0.00000       Uiso       1.00
      C329          C  0.4855841  0.9405313  0.3136261    0.00000       Uiso       1.00
      C330          C  0.5087138  0.9509735  0.2978498    0.00000       Uiso       1.00
      C331          C  0.5181316  0.9393966  0.2789129    0.00000       Uiso       1.00
      C332          C  0.5034882  0.9168677  0.2763128    0.00000       Uiso       1.00
      H167          H  0.5101116  0.9074023  0.2622634    0.00000       Uiso       1.00
      H168          H  0.5193103  0.9682665  0.3002277    0.00000       Uiso       1.00
      C333          C  0.2928030  0.7894209  0.3660005    0.00000       Uiso       1.00
      C334          C  0.3052706  0.8051046  0.3764644    0.00000       Uiso       1.00
      C335          C  0.3506130  0.8322572  0.2976990    0.00000       Uiso       1.00
      C336          C  0.3631044  0.8478622  0.3081531    0.00000       Uiso       1.00
      C337          C  0.3159218  0.9173700  0.4522259    0.00000       Uiso       1.00
      C338          C  0.3232734  0.9017739  0.4417630    0.00000       Uiso       1.00
      C339          C  0.4763670  0.9520952  0.3324036    0.00000       Uiso       1.00
      C340          C  0.4534277  0.9416392  0.3480039    0.00000       Uiso       1.00
      C341          C  0.4659126  0.8837767  0.2895366    0.00000       Uiso       1.00
      C342          C  0.4429871  0.8733109  0.3052156    0.00000       Uiso       1.00
      H169          H  0.4723805  0.8742391  0.2754078    0.00000       Uiso       1.00
      H170          H  0.4324333  0.8560174  0.3027065    0.00000       Uiso       1.00
      H171          H  0.4869379  0.9693144  0.3350720    0.00000       Uiso       1.00
      H172          H  0.4469611  0.9511070  0.3622301    0.00000       Uiso       1.00
      H173          H  0.3790311  0.8620842  0.2986880    0.00000       Uiso       1.00
      H174          H  0.3572478  0.8349177  0.2804839    0.00000       Uiso       1.00
      H175          H  0.2985445  0.8026034  0.3937540    0.00000       Uiso       1.00
      H176          H  0.2768051  0.7752964  0.3755355    0.00000       Uiso       1.00
      H177          H  0.3155273  0.8875557  0.4512245    0.00000       Uiso       1.00
      H178          H  0.3026869  0.9147065  0.4694440    0.00000       Uiso       1.00
      C343          C  0.3389910  0.8394244  0.3751438    0.00000       Uiso       1.00
      C344          C  0.3606615  0.8576516  0.3632538    0.00000       Uiso       1.00
      C345          C  0.3678885  0.8606823  0.3410324    0.00000       Uiso       1.00
      C346          C  0.3552639  0.8451235  0.3304583    0.00000       Uiso       1.00
      C347          C  0.3344460  0.8264287  0.3422955    0.00000       Uiso       1.00
      C348          C  0.3262016  0.8236777  0.3647777    0.00000       Uiso       1.00
      H179          H  0.3321349  0.8373107  0.3925497    0.00000       Uiso       1.00
      H180          H  0.3835005  0.8752052  0.3318083    0.00000       Uiso       1.00
      C349          C  0.3719551  0.8631497  0.3921088    0.00000       Uiso       1.00
      C350          C  0.3754110  0.8750479  0.4103353    0.00000       Uiso       1.00
      C351          C  0.3677641  0.8409269  0.3890634    0.00000       Uiso       1.00
      C352          C  0.3648472  0.8303598  0.4046083    0.00000       Uiso       1.00
      C353          C  0.3669828  0.8422055  0.4233035    0.00000       Uiso       1.00
      C354          C  0.3724710  0.8646889  0.4260684    0.00000       Uiso       1.00
      H181          H  0.3801498  0.8924549  0.4124593    0.00000       Uiso       1.00
      H182          H  0.3666655  0.8316963  0.3745398    0.00000       Uiso       1.00
      C355          C  0.3661393  0.8920023  0.3866441    0.00000       Uiso       1.00
      C356          C  0.3745665  0.9102235  0.3747600    0.00000       Uiso       1.00
      C357          C  0.3481208  0.8889670  0.4088704    0.00000       Uiso       1.00
      C358          C  0.3404697  0.9045167  0.4194536    0.00000       Uiso       1.00
      C359          C  0.3501651  0.9232064  0.4076213    0.00000       Uiso       1.00
      C360          C  0.3671464  0.9259613  0.3851351    0.00000       Uiso       1.00
      H183          H  0.3872238  0.9123397  0.3573514    0.00000       Uiso       1.00
      H184          H  0.3399999  0.8744475  0.4180912    0.00000       Uiso       1.00
      C361          C  0.4007999  0.8865249  0.3577685    0.00000       Uiso       1.00
      C362          C  0.4105872  0.8746326  0.3395360    0.00000       Uiso       1.00
      C363          C  0.4157825  0.9087524  0.3608092    0.00000       Uiso       1.00
      C364          C  0.4389751  0.9193286  0.3452552    0.00000       Uiso       1.00
      C365          C  0.4479620  0.9074880  0.3265550    0.00000       Uiso       1.00
      C366          C  0.4337366  0.8850006  0.3237939    0.00000       Uiso       1.00
      H185          H  0.4000472  0.8572230  0.3374146    0.00000       Uiso       1.00
      H186          H  0.4093900  0.9179797  0.3753361    0.00000       Uiso       1.00
      C367          C  0.3748414  0.8763840  0.4446414    0.00000       Uiso       1.00
      C368          C  0.3716426  0.8659270  0.4603117    0.00000       Uiso       1.00
      C369          C  0.3597507  0.8080534  0.4018555    0.00000       Uiso       1.00
      C370          C  0.3566544  0.7976063  0.4174469    0.00000       Uiso       1.00
      C371          C  0.3764564  0.9445290  0.3734535    0.00000       Uiso       1.00
      C372          C  0.3691973  0.9602039  0.3839262    0.00000       Uiso       1.00
      H187          H  0.3735251  0.8754683  0.4744367    0.00000       Uiso       1.00
      H188          H  0.3790626  0.8936746  0.4471533    0.00000       Uiso       1.00
      H189          H  0.3580366  0.7985819  0.3876330    0.00000       Uiso       1.00
      H190          H  0.3526837  0.7803900  0.4147756    0.00000       Uiso       1.00
      H191          H  0.3895149  0.9470330  0.3561611    0.00000       Uiso       1.00
      H192          H  0.3768445  0.9743245  0.3743950    0.00000       Uiso       1.00
      C373          C  0.1250006  0.7501678  0.0000558    0.00000       Uiso       1.00
      C374          C  0.9488623  0.6452214  0.0404262    0.00000       Uiso       1.00
      C375          C  0.9568234  0.6578003  0.0555434    0.00000       Uiso       1.00
      C376          C  0.9413897  0.6572490  0.0785793    0.00000       Uiso       1.00
      C377          C  0.9182695  0.6445044  0.0863871    0.00000       Uiso       1.00
      C378          C  0.9103082  0.6321263  0.0712278    0.00000       Uiso       1.00
      C379          C  0.9257367  0.6325508  0.0482024    0.00000       Uiso       1.00
      H193          H  0.9603716  0.6450390  0.0226379    0.00000       Uiso       1.00
      H194          H  0.9199744  0.6230226  0.0361974    0.00000       Uiso       1.00
      H195          H  0.9066653  0.6443752  0.1042546    0.00000       Uiso       1.00
      C380          C  0.2172927  0.7297361  0.8318369    0.00000       Uiso       1.00
      C381          C  0.2298681  0.7192352  0.8238702    0.00000       Uiso       1.00
      C382          C  0.2178371  0.7378761  0.8164029    0.00000       Uiso       1.00
      C383          C  0.2305713  0.7352932  0.7932770    0.00000       Uiso       1.00
      C384          C  0.2429459  0.7245492  0.7853103    0.00000       Uiso       1.00
      C385          C  0.2425283  0.7165415  0.8007389    0.00000       Uiso       1.00
      H196          H  0.2300556  0.7131490  0.8353794    0.00000       Uiso       1.00
      H197          H  0.2520539  0.7083014  0.7949724    0.00000       Uiso       1.00
      H198          H  0.2306954  0.7416754  0.7816728    0.00000       Uiso       1.00
      C386          C  0.1454733  0.6947645  0.0923387    0.00000       Uiso       1.00
      C387          C  0.1559797  0.7098899  0.1049094    0.00000       Uiso       1.00
      C388          C  0.1373335  0.6717318  0.0928868    0.00000       Uiso       1.00
      C389          C  0.1399221  0.6639354  0.1056198    0.00000       Uiso       1.00
      C390          C  0.1506716  0.6791031  0.1179897    0.00000       Uiso       1.00
      C391          C  0.1586792  0.7021253  0.1175684    0.00000       Uiso       1.00
      H199          H  0.1620661  0.7276758  0.1050943    0.00000       Uiso       1.00
      H200          H  0.1669236  0.7141365  0.1270903    0.00000       Uiso       1.00
      H201          H  0.1335399  0.6460703  0.1057468    0.00000       Uiso       1.00
      C392          C  0.1804132  0.9183699  0.0205038    0.00000       Uiso       1.00
      C393          C  0.1652925  0.9263242  0.0310170    0.00000       Uiso       1.00
      C394          C  0.2034422  0.9338139  0.0123538    0.00000       Uiso       1.00
      C395          C  0.2112398  0.9569376  0.0149388    0.00000       Uiso       1.00
      C396          C  0.1960769  0.9648921  0.0256951    0.00000       Uiso       1.00
      C397          C  0.1730583  0.9494533  0.0337130    0.00000       Uiso       1.00
      H202          H  0.1475093  0.9148070  0.0371113    0.00000       Uiso       1.00
      H203          H  0.1610508  0.9552103  0.0419627    0.00000       Uiso       1.00
      H204          H  0.2291020  0.9685499  0.0085487    0.00000       Uiso       1.00
      C398          C  0.2045725  0.7496307  0.8246506    0.00000       Uiso       1.00
       O33          O  0.2051310  0.7566442  0.8111580    0.00000       Uiso       1.00
       O34          O  0.1922411  0.7522562  0.8468516    0.00000       Uiso       1.00
      H205          H  0.1850725  0.7598422  0.8491498    0.00000       Uiso       1.00
      C399          C  0.1255729  0.6549430  0.0796274    0.00000       Uiso       1.00
       O35          O  0.1185596  0.6349927  0.0801891    0.00000       Uiso       1.00
       O36          O  0.1229413  0.6621748  0.0672977    0.00000       Uiso       1.00
      H206          H  0.1153521  0.6497086  0.0601325    0.00000       Uiso       1.00
      C400          C  0.2202257  0.9255797  0.0005857    0.00000       Uiso       1.00
       O37          O  0.2401729  0.9390807  0.9935629    0.00000       Uiso       1.00
       O38          O  0.2129927  0.9033806  0.9979573    0.00000       Uiso       1.00
      H207          H  0.2254556  0.9010912  0.9903626    0.00000       Uiso       1.00
      C401          C  0.9496315  0.6705174  0.0953591    0.00000       Uiso       1.00
       O39          O  0.9361391  0.6699528  0.1153122    0.00000       Uiso       1.00
       O40          O  0.9718269  0.6828581  0.0881163    0.00000       Uiso       1.00
      H208          H  0.9741219  0.6900278  0.1005781    0.00000       Uiso       1.00
      C402          C  0.0195538  0.6760646  0.0226275    0.00000       Uiso       1.00
      C403          C  0.0285790  0.6969658  0.0322873    0.00000       Uiso       1.00
      C404          C  0.0142909  0.7051148  0.0494898    0.00000       Uiso       1.00
      C405          C  0.9911585  0.6924156  0.0568549    0.00000       Uiso       1.00
      C406          C  0.9817426  0.6714175  0.0473392    0.00000       Uiso       1.00
      C407          C  0.9963906  0.6635409  0.0300868    0.00000       Uiso       1.00
      H209          H  0.9897690  0.6474501  0.0226630    0.00000       Uiso       1.00
      H210          H  0.9805583  0.6991056  0.0698358    0.00000       Uiso       1.00
      C408          C  0.1781594  0.7391169  0.9036101    0.00000       Uiso       1.00
      C409          C  0.1990565  0.7413343  0.8945755    0.00000       Uiso       1.00
      C410          C  0.1700040  0.7338658  0.8893256    0.00000       Uiso       1.00
      C411          C  0.1826929  0.7307827  0.8661875    0.00000       Uiso       1.00
      C412          C  0.2036867  0.7328500  0.8567621    0.00000       Uiso       1.00
      C413          C  0.2115699  0.7381390  0.8714066    0.00000       Uiso       1.00
      H211          H  0.2276576  0.7401856  0.8647780    0.00000       Uiso       1.00
      H212          H  0.1759981  0.7264609  0.8555902    0.00000       Uiso       1.00
      C414          C  0.1360749  0.7179843  0.0532097    0.00000       Uiso       1.00
      C415          C  0.1338668  0.7276470  0.0741078    0.00000       Uiso       1.00
      C416          C  0.1413226  0.7007907  0.0450517    0.00000       Uiso       1.00
      C417          C  0.1444113  0.6934372  0.0577393    0.00000       Uiso       1.00
      C418          C  0.1423533  0.7029561  0.0787341    0.00000       Uiso       1.00
      C419          C  0.1370676  0.7201995  0.0866197    0.00000       Uiso       1.00
      H213          H  0.1350281  0.7276253  0.1027085    0.00000       Uiso       1.00
      H214          H  0.1487303  0.6804631  0.0510426    0.00000       Uiso       1.00
      C420          C  0.1571890  0.8466038  0.0111158    0.00000       Uiso       1.00
      C421          C  0.1475252  0.8556246  0.0089122    0.00000       Uiso       1.00
      C422          C  0.1743853  0.8608996  0.0163555    0.00000       Uiso       1.00
      C423          C  0.1817401  0.8840353  0.0194410    0.00000       Uiso       1.00
      C424          C  0.1722201  0.8934470  0.0173874    0.00000       Uiso       1.00
      C425          C  0.1549742  0.8787913  0.0121098    0.00000       Uiso       1.00
      H215          H  0.1475473  0.8854095  0.0100737    0.00000       Uiso       1.00
      H216          H  0.1947163  0.8946415  0.0237539    0.00000       Uiso       1.00
      C426          C  0.0339739  0.6680461  0.0057145    0.00000       Uiso       1.00
      C427          C  0.0569023  0.6805172  0.9984559    0.00000       Uiso       1.00
      C428          C  0.0235063  0.7258992  0.0590469    0.00000       Uiso       1.00
      C429          C  0.0464484  0.7383942  0.0516963    0.00000       Uiso       1.00
      C430          C  0.1433263  0.6912304  0.0242706    0.00000       Uiso       1.00
      C431          C  0.1402095  0.6985695  0.0117872    0.00000       Uiso       1.00
      C432          C  0.1839466  0.8516886  0.0183547    0.00000       Uiso       1.00
      C433          C  0.1766062  0.8287432  0.0152411    0.00000       Uiso       1.00
      C434          C  0.1306185  0.8411970  0.0033814    0.00000       Uiso       1.00
      C435          C  0.1233706  0.8182653  0.0001653    0.00000       Uiso       1.00
      H217          H  0.1229568  0.8476598  0.0015081    0.00000       Uiso       1.00
      H218          H  0.1103059  0.8077015  0.9959401    0.00000       Uiso       1.00
      H219          H  0.1971876  0.8622689  0.0223288    0.00000       Uiso       1.00
      H220          H  0.1843666  0.8222816  0.0169458    0.00000       Uiso       1.00
      H221          H  0.0529134  0.7543308  0.0594537    0.00000       Uiso       1.00
      H222          H  0.0129318  0.7325410  0.0722925    0.00000       Uiso       1.00
      H223          H  0.0674599  0.6737841  0.9853864    0.00000       Uiso       1.00
      H224          H  0.0275076  0.6520382  0.9980553    0.00000       Uiso       1.00
      H225          H  0.1419179  0.6908096  0.9958522    0.00000       Uiso       1.00
      H226          H  0.1473066  0.6779914  0.0176221    0.00000       Uiso       1.00
      C436          C  0.0893028  0.7142541  0.0003620    0.00000       Uiso       1.00
      C437          C  0.0990870  0.7359365  0.0088043    0.00000       Uiso       1.00
      C438          C  0.0841007  0.7431729  0.0268361    0.00000       Uiso       1.00
      C439          C  0.0609054  0.7305448  0.0344864    0.00000       Uiso       1.00
      C440          C  0.0519204  0.7097142  0.0247762    0.00000       Uiso       1.00
      C441          C  0.0661507  0.7014610  0.0077810    0.00000       Uiso       1.00
      H227          H  0.0998470  0.7073911  0.9876933    0.00000       Uiso       1.00
      H228          H  0.0904922  0.7587951  0.0349683    0.00000       Uiso       1.00
      C442          C  0.1392202  0.7472168  0.9741354    0.00000       Uiso       1.00
      C443          C  0.1608983  0.7506736  0.9643415    0.00000       Uiso       1.00
      C444          C  0.1319771  0.7430091  0.9591523    0.00000       Uiso       1.00
      C445          C  0.1445948  0.7400772  0.9359514    0.00000       Uiso       1.00
      C446          C  0.1654214  0.7422140  0.9269571    0.00000       Uiso       1.00
      C447          C  0.1736810  0.7477186  0.9411837    0.00000       Uiso       1.00
      H229          H  0.1677658  0.7554249  0.9748826    0.00000       Uiso       1.00
      H230          H  0.1163578  0.7419093  0.9655508    0.00000       Uiso       1.00
      C448          C  0.1279576  0.7414321  0.0142741    0.00000       Uiso       1.00
      C449          C  0.1245104  0.7498772  0.0359537    0.00000       Uiso       1.00
      C450          C  0.1321622  0.7234091  0.0070290    0.00000       Uiso       1.00
      C451          C  0.1350998  0.7157705  0.0196454    0.00000       Uiso       1.00
      C452          C  0.1329722  0.7254836  0.0404730    0.00000       Uiso       1.00
      C453          C  0.1274710  0.7424698  0.0487351    0.00000       Uiso       1.00
      H231          H  0.1197621  0.7625384  0.0428233    0.00000       Uiso       1.00
      H232          H  0.1332551  0.7152743  0.9914087    0.00000       Uiso       1.00
      C454          C  0.1337375  0.7760853  0.0030090    0.00000       Uiso       1.00
      C455          C  0.1252909  0.7858654  0.9995652    0.00000       Uiso       1.00
      C456          C  0.1517626  0.7910796  0.0072053    0.00000       Uiso       1.00
      C457          C  0.1594026  0.8142783  0.0101395    0.00000       Uiso       1.00
      C458          C  0.1496884  0.8232591  0.0080164    0.00000       Uiso       1.00
      C459          C  0.1326995  0.8090211  0.0025231    0.00000       Uiso       1.00
      H233          H  0.1126273  0.7753154  0.9948228    0.00000       Uiso       1.00
      H234          H  0.1598976  0.7846918  0.0082944    0.00000       Uiso       1.00
      C460          C  0.1946203  0.7500901  0.9319259    0.00000       Uiso       1.00
      C461          C  0.2070815  0.7468764  0.9089920    0.00000       Uiso       1.00
      C462          C  0.1367390  0.7349643  0.9214979    0.00000       Uiso       1.00
      C463          C  0.1492238  0.7318529  0.8985502    0.00000       Uiso       1.00
      C464          C  0.1251088  0.7517974  0.0696755    0.00000       Uiso       1.00
      C465          C  0.1283280  0.7445509  0.0821353    0.00000       Uiso       1.00
      H235          H  0.2230861  0.7487603  0.9025186    0.00000       Uiso       1.00
      H236          H  0.2013581  0.7543238  0.9424805    0.00000       Uiso       1.00
      H237          H  0.1208053  0.7332488  0.9279701    0.00000       Uiso       1.00
      H238          H  0.1425771  0.7278698  0.8879787    0.00000       Uiso       1.00
      H239          H  0.1208779  0.7648601  0.0764153    0.00000       Uiso       1.00
      H240          H  0.1264511  0.7522116  0.0981409    0.00000       Uiso       1.00
      C466          C  0.0000004  0.2495523  0.2499994    0.00000       Uiso       1.00
      C467          C  0.9288223  0.2186988  0.4261419    0.00000       Uiso       1.00
      C468          C  0.9241998  0.2291961  0.4181922    0.00000       Uiso       1.00
      C469          C  0.9093137  0.2373429  0.4336399    0.00000       Uiso       1.00
      C470          C  0.8989392  0.2347704  0.4567624    0.00000       Uiso       1.00
      C471          C  0.9033609  0.2240300  0.4647121    0.00000       Uiso       1.00
      C472          C  0.9183685  0.2160153  0.4492697    0.00000       Uiso       1.00
      H241          H  0.9405167  0.2126074  0.4146219    0.00000       Uiso       1.00
      H242          H  0.9221380  0.2077778  0.4550230    0.00000       Uiso       1.00
      H243          H  0.8874614  0.2411578  0.4683775    0.00000       Uiso       1.00
      C473          C  0.1127486  0.1941078  0.1576074    0.00000       Uiso       1.00
      C474          C  0.1358181  0.2092276  0.1450352    0.00000       Uiso       1.00
      C475          C  0.1051634  0.1710748  0.1570458    0.00000       Uiso       1.00
      C476          C  0.1204839  0.1632728  0.1442977    0.00000       Uiso       1.00
      C477          C  0.1435957  0.1784350  0.1319263    0.00000       Uiso       1.00
      C478          C  0.1511756  0.2014573  0.1323612    0.00000       Uiso       1.00
      H244          H  0.1420840  0.2270134  0.1448608    0.00000       Uiso       1.00
      H245          H  0.1689359  0.2134643  0.1228384    0.00000       Uiso       1.00
      H246          H  0.1142338  0.1454076  0.1441605    0.00000       Uiso       1.00
      C479          C  0.0758013  0.4177453  0.2296433    0.00000       Uiso       1.00
      C480          C  0.0711788  0.4256949  0.2191461    0.00000       Uiso       1.00
      C481          C  0.0906874  0.4331930  0.2377902    0.00000       Uiso       1.00
      C482          C  0.1010620  0.4563155  0.2352178    0.00000       Uiso       1.00
      C483          C  0.0966402  0.4642652  0.2244774    0.00000       Uiso       1.00
      C484          C  0.0816326  0.4488228  0.2164626    0.00000       Uiso       1.00
      H247          H  0.0594844  0.4141750  0.2130547    0.00000       Uiso       1.00
      H248          H  0.0778631  0.4545761  0.2082251    0.00000       Uiso       1.00
      H249          H  0.1125398  0.4679306  0.2416052    0.00000       Uiso       1.00
      C485          C  0.8872522  0.1571601  0.1945548    0.00000       Uiso       1.00
      C486          C  0.8641827  0.1445879  0.2096746    0.00000       Uiso       1.00
      C487          C  0.8948374  0.1565985  0.1715219    0.00000       Uiso       1.00
      C488          C  0.8795170  0.1438505  0.1637198    0.00000       Uiso       1.00
      C489          C  0.8564051  0.1314790  0.1788820    0.00000       Uiso       1.00
      C490          C  0.8488252  0.1319139  0.2019042    0.00000       Uiso       1.00
      H250          H  0.8579168  0.1444134  0.2274604    0.00000       Uiso       1.00
      H251          H  0.8310649  0.1223910  0.2139112    0.00000       Uiso       1.00
      H252          H  0.8857670  0.1437132  0.1458546    0.00000       Uiso       1.00
      C491          C  0.0801516  0.1542920  0.1703066    0.00000       Uiso       1.00
       O41          O  0.0737055  0.1343414  0.1697330    0.00000       Uiso       1.00
       O42          O  0.0651914  0.1615293  0.1826511    0.00000       Uiso       1.00
      H253          H  0.0504424  0.1490663  0.1898152    0.00000       Uiso       1.00
      C492          C  0.0957192  0.4249640  0.2495412    0.00000       Uiso       1.00
       O43          O  0.1086502  0.4384685  0.2565608    0.00000       Uiso       1.00
       O44          O  0.0858657  0.4027665  0.2521574    0.00000       Uiso       1.00
      H254          H  0.0907438  0.4004805  0.2597423    0.00000       Uiso       1.00
      C493          C  0.9198492  0.1698594  0.1547391    0.00000       Uiso       1.00
       O45          O  0.9262953  0.1692858  0.1347886    0.00000       Uiso       1.00
       O46          O  0.9348094  0.1822039  0.1619764    0.00000       Uiso       1.00
      H255          H  0.9495584  0.1893680  0.1495134    0.00000       Uiso       1.00
      C494          C  0.9042820  0.2490939  0.4254108    0.00000       Uiso       1.00
       O47          O  0.8913510  0.2561135  0.4389153    0.00000       Uiso       1.00
       O48          O  0.9141354  0.2517101  0.4032134    0.00000       Uiso       1.00
      H256          H  0.9092572  0.2592950  0.4009274    0.00000       Uiso       1.00
      C495          C  0.9686608  0.2407663  0.3554523    0.00000       Uiso       1.00
      C496          C  0.9567859  0.2385449  0.3464304    0.00000       Uiso       1.00
      C497          C  0.9343510  0.2333001  0.3607238    0.00000       Uiso       1.00
      C498          C  0.9239192  0.2302274  0.3838582    0.00000       Uiso       1.00
      C499          C  0.9355003  0.2322989  0.3932709    0.00000       Uiso       1.00
      C500          C  0.9580227  0.2375813  0.3786175    0.00000       Uiso       1.00
      H257          H  0.9674910  0.2396309  0.3852366    0.00000       Uiso       1.00
      H258          H  0.9066308  0.2259102  0.3944623    0.00000       Uiso       1.00
      C501          C  0.0642242  0.2173451  0.1967831    0.00000       Uiso       1.00
      C502          C  0.0828995  0.2269986  0.1758864    0.00000       Uiso       1.00
      C503          C  0.0613274  0.2001549  0.2049245    0.00000       Uiso       1.00
      C504          C  0.0771027  0.1927959  0.1922220    0.00000       Uiso       1.00
      C505          C  0.0960250  0.2023055  0.1712282    0.00000       Uiso       1.00
      C506          C  0.0986116  0.2195454  0.1633593    0.00000       Uiso       1.00
      H259          H  0.1126494  0.2269642  0.1472719    0.00000       Uiso       1.00
      H260          H  0.0747356  0.1798246  0.1989061    0.00000       Uiso       1.00
      C507          C  0.0432152  0.3459834  0.2389921    0.00000       Uiso       1.00
      C508          C  0.0313402  0.3550053  0.2412136    0.00000       Uiso       1.00
      C509          C  0.0656501  0.3602768  0.2337472    0.00000       Uiso       1.00
      C510          C  0.0760819  0.3834112  0.2306745    0.00000       Uiso       1.00
      C511          C  0.0645008  0.3928239  0.2327461    0.00000       Uiso       1.00
      C512          C  0.0419784  0.3781705  0.2380287    0.00000       Uiso       1.00
      H261          H  0.0325100  0.3847896  0.2400784    0.00000       Uiso       1.00
      H262          H  0.0933703  0.3940154  0.2263573    0.00000       Uiso       1.00
      C513          C  0.9357767  0.1963359  0.2177922    0.00000       Uiso       1.00
      C514          C  0.9171013  0.1754392  0.2274457    0.00000       Uiso       1.00
      C515          C  0.9386735  0.2044773  0.2006020    0.00000       Uiso       1.00
      C516          C  0.9228981  0.1917747  0.1932429    0.00000       Uiso       1.00
      C517          C  0.9039757  0.1707810  0.2027526    0.00000       Uiso       1.00
      C518          C  0.9013892  0.1629121  0.2199925    0.00000       Uiso       1.00
      H263          H  0.8873513  0.1468247  0.2274113    0.00000       Uiso       1.00
      H264          H  0.9252653  0.1984589  0.1802716    0.00000       Uiso       1.00
      C519          C  0.9910970  0.2463020  0.3410271    0.00000       Uiso       1.00
      C520          C  0.0015523  0.2495054  0.3180969    0.00000       Uiso       1.00
      C521          C  0.9227830  0.2312831  0.3515119    0.00000       Uiso       1.00
      C522          C  0.9332286  0.2343842  0.3285679    0.00000       Uiso       1.00
      C523          C  0.0772182  0.3510649  0.2317300    0.00000       Uiso       1.00
      C524          C  0.0667725  0.3281208  0.2348310    0.00000       Uiso       1.00
      C525          C  0.9574366  0.2252573  0.1910508    0.00000       Uiso       1.00
      C526          C  0.9730360  0.2377556  0.1983955    0.00000       Uiso       1.00
      C527          C  0.9146259  0.1674283  0.2443463    0.00000       Uiso       1.00
      C528          C  0.9303040  0.1799030  0.2515983    0.00000       Uiso       1.00
      H265          H  0.9005085  0.1514242  0.2520000    0.00000       Uiso       1.00
      H266          H  0.9278057  0.1731758  0.2646582    0.00000       Uiso       1.00
      H267          H  0.9600943  0.2318932  0.1778146    0.00000       Uiso       1.00
      H268          H  0.9872508  0.2536887  0.1906430    0.00000       Uiso       1.00
      H269          H  0.9237579  0.2326659  0.3221056    0.00000       Uiso       1.00
      H270          H  0.9055684  0.2273047  0.3620904    0.00000       Uiso       1.00
      H271          H  0.0188411  0.2537344  0.3075354    0.00000       Uiso       1.00
      H272          H  0.0006373  0.2481889  0.3474908    0.00000       Uiso       1.00
      H273          H  0.0762433  0.3216585  0.2331126    0.00000       Uiso       1.00
      H274          H  0.0944328  0.3616434  0.2277515    0.00000       Uiso       1.00
      C529          C  0.0002160  0.2500744  0.2856976    0.00000       Uiso       1.00
      C530          C  0.9883195  0.2466132  0.2759156    0.00000       Uiso       1.00
      C531          C  0.9660986  0.2424124  0.2909081    0.00000       Uiso       1.00
      C532          C  0.9555328  0.2394907  0.3141054    0.00000       Uiso       1.00
      C533          C  0.9673774  0.2416315  0.3230870    0.00000       Uiso       1.00
      C534          C  0.9898584  0.2471298  0.3088516    0.00000       Uiso       1.00
      H275          H  0.0176208  0.2548209  0.2751498    0.00000       Uiso       1.00
      H276          H  0.9568685  0.2413098  0.2845197    0.00000       Uiso       1.00
      C535          C  0.0171746  0.2408103  0.2357643    0.00000       Uiso       1.00
      C536          C  0.0353920  0.2492457  0.2140857    0.00000       Uiso       1.00
      C537          C  0.0141471  0.2227904  0.2429927    0.00000       Uiso       1.00
      C538          C  0.0297003  0.2151461  0.2303612    0.00000       Uiso       1.00
      C539          C  0.0483857  0.2248500  0.2095349    0.00000       Uiso       1.00
      C540          C  0.0511330  0.2418327  0.2012893    0.00000       Uiso       1.00
      H277          H  0.0375026  0.2619040  0.2072286    0.00000       Uiso       1.00
      H278          H  0.9996313  0.2146629  0.2586112    0.00000       Uiso       1.00
      C541          C  0.0116815  0.2754685  0.2470604    0.00000       Uiso       1.00
      C542          C  0.9997849  0.2852505  0.2505217    0.00000       Uiso       1.00
      C543          C  0.0339025  0.2904610  0.2428593    0.00000       Uiso       1.00
      C544          C  0.0444683  0.3136584  0.2399377    0.00000       Uiso       1.00
      C545          C  0.0326236  0.3226400  0.2420786    0.00000       Uiso       1.00
      C546          C  0.0101425  0.3084046  0.2475771    0.00000       Uiso       1.00
      H279          H  0.9823801  0.2747027  0.2552683    0.00000       Uiso       1.00
      H280          H  0.0431326  0.2840726  0.2417566    0.00000       Uiso       1.00
      C547          C  0.9828264  0.2353172  0.2412575    0.00000       Uiso       1.00
      C548          C  0.9646088  0.2136386  0.2496930    0.00000       Uiso       1.00
      C549          C  0.9858539  0.2425456  0.2232375    0.00000       Uiso       1.00
      C550          C  0.9703007  0.2299140  0.2155932    0.00000       Uiso       1.00
      C551          C  0.9516152  0.2090877  0.2252972    0.00000       Uiso       1.00
      C552          C  0.9488679  0.2008422  0.2422799    0.00000       Uiso       1.00
      H281          H  0.9624982  0.2067815  0.2623513    0.00000       Uiso       1.00
      H282          H  0.0003696  0.2581640  0.2151100    0.00000       Uiso       1.00
      C553          C  0.0696967  0.2511511  0.1803501    0.00000       Uiso       1.00
      C554          C  0.0853748  0.2438991  0.1678754    0.00000       Uiso       1.00
      C555          C  0.0269650  0.1979484  0.2382029    0.00000       Uiso       1.00
      C556          C  0.0425644  0.1906038  0.2257045    0.00000       Uiso       1.00
      C557          C  0.9984486  0.3176499  0.2499529    0.00000       Uiso       1.00
      C558          C  0.0089040  0.3405801  0.2467495    0.00000       Uiso       1.00
      H283          H  0.0994922  0.2515528  0.1518713    0.00000       Uiso       1.00
      H284          H  0.0721950  0.2642109  0.1736229    0.00000       Uiso       1.00
      H285          H  0.0127503  0.1901960  0.2541359    0.00000       Uiso       1.00
      H286          H  0.0399068  0.1773676  0.2323405    0.00000       Uiso       1.00
      H287          H  0.9811598  0.3070884  0.2541820    0.00000       Uiso       1.00
      H288          H  0.9993637  0.3470438  0.2486365    0.00000       Uiso       1.00
      C559          C  0.6204598  0.5804011  0.6517217    0.00000       Uiso       1.00
      C560          C  0.6253592  0.5754942  0.6641057    0.00000       Uiso       1.00
      C561          C  0.6187213  0.5536050  0.6664799    0.00000       Uiso       1.00
      C562          C  0.6229394  0.5490439  0.6797641    0.00000       Uiso       1.00
      C563          C  0.6325946  0.5660343  0.6921759    0.00000       Uiso       1.00
      C564          C  0.6389154  0.5879250  0.6898151    0.00000       Uiso       1.00
      C565          C  0.6370901  0.5932343  0.6746279    0.00000       Uiso       1.00
       O49          O  0.6083226  0.5650253  0.6412396    0.00000       Uiso       1.00
      H289          H  0.6440513  0.6007053  0.7008223    0.00000       Uiso       1.00
      C566          C  0.7229989  0.7277590  0.7103233    0.00000       Uiso       1.00
      C567          C  0.7106203  0.7104878  0.7005216    0.00000       Uiso       1.00
      C568          C  0.7082598  0.7148398  0.6853270    0.00000       Uiso       1.00
      C569          C  0.6950852  0.6973469  0.6763799    0.00000       Uiso       1.00
      C570          C  0.6827826  0.6752215  0.6835393    0.00000       Uiso       1.00
      C571          C  0.6850832  0.6712303  0.6991488    0.00000       Uiso       1.00
      C572          C  0.7001594  0.6882369  0.7064312    0.00000       Uiso       1.00
       O50          O  0.7334913  0.7503480  0.7069651    0.00000       Uiso       1.00
      H290          H  0.7168447  0.7318518  0.6803054    0.00000       Uiso       1.00
      H291          H  0.6945307  0.7013785  0.6639966    0.00000       Uiso       1.00
      H292          H  0.6741419  0.6550351  0.7066844    0.00000       Uiso       1.00
      C573          C  0.6645220  0.5666484  0.7549354    0.00000       Uiso       1.00
      C574          C  0.6743072  0.5888206  0.7500651    0.00000       Uiso       1.00
      C575          C  0.6894925  0.6063738  0.7567972    0.00000       Uiso       1.00
      C576          C  0.6984298  0.6284988  0.7525090    0.00000       Uiso       1.00
      C577          C  0.6912699  0.6336426  0.7426888    0.00000       Uiso       1.00
      C578          C  0.6756790  0.6157274  0.7363671    0.00000       Uiso       1.00
      C579          C  0.6684129  0.5933696  0.7382755    0.00000       Uiso       1.00
       O51          O  0.6679929  0.5595889  0.7669774    0.00000       Uiso       1.00
      H293          H  0.6945006  0.6027855  0.7652180    0.00000       Uiso       1.00
      H294          H  0.7107994  0.6414231  0.7571175    0.00000       Uiso       1.00
      H295          H  0.6681225  0.6190934  0.7311091    0.00000       Uiso       1.00
      C580          C  0.6495159  0.5493552  0.7484145    0.00000       Uiso       1.00
      C581          C  0.6440614  0.5531601  0.7358492    0.00000       Uiso       1.00
      C582          C  0.6288406  0.5356399  0.7291225    0.00000       Uiso       1.00
      C583          C  0.6244267  0.5397897  0.7157602    0.00000       Uiso       1.00
      C584          C  0.6361851  0.5613425  0.7075719    0.00000       Uiso       1.00
      C585          C  0.6516662  0.5787311  0.7142562    0.00000       Uiso       1.00
      C586          C  0.6545115  0.5753321  0.7296886    0.00000       Uiso       1.00
       O52          O  0.6416013  0.5287293  0.7550167    0.00000       Uiso       1.00
      H296          H  0.6625320  0.5947447  0.7064028    0.00000       Uiso       1.00
      C587          C  0.7252752  0.7234987  0.7253057    0.00000       Uiso       1.00
      C588          C  0.7160199  0.7016893  0.7307557    0.00000       Uiso       1.00
      C589          C  0.7183774  0.6973627  0.7459682    0.00000       Uiso       1.00
      C590          C  0.7097021  0.6754202  0.7505407    0.00000       Uiso       1.00
      C591          C  0.6997599  0.6573607  0.7389069    0.00000       Uiso       1.00
      C592          C  0.6979014  0.6620988  0.7233561    0.00000       Uiso       1.00
      C593          C  0.7042565  0.6837858  0.7203710    0.00000       Uiso       1.00
       O53          O  0.7379081  0.7427480  0.7333508    0.00000       Uiso       1.00
      H297          H  0.7267995  0.7110840  0.7544173    0.00000       Uiso       1.00
      H298          H  0.7110292  0.6728224  0.7631010    0.00000       Uiso       1.00
      H299          H  0.6926522  0.6490386  0.7125610    0.00000       Uiso       1.00
      C594          C  0.6269807  0.6019452  0.6495000    0.00000       Uiso       1.00
      C595          C  0.6395229  0.6199523  0.6587612    0.00000       Uiso       1.00
      C596          C  0.6461917  0.6418489  0.6564149    0.00000       Uiso       1.00
      C597          C  0.6594523  0.6597055  0.6650931    0.00000       Uiso       1.00
      C598          C  0.6675682  0.6561992  0.6750369    0.00000       Uiso       1.00
      C599          C  0.6609713  0.6340469  0.6768934    0.00000       Uiso       1.00
      C600          C  0.6456502  0.6157210  0.6705250    0.00000       Uiso       1.00
       O54          O  0.6203291  0.6034423  0.6369432    0.00000       Uiso       1.00
      H300          H  0.6408770  0.6449655  0.6479931    0.00000       Uiso       1.00
      H301          H  0.6633632  0.6761828  0.6637646    0.00000       Uiso       1.00
      H302          H  0.6687581  0.6310344  0.6821432    0.00000       Uiso       1.00
        B1          B  0.6084067  0.5798303  0.6319076    0.00000       Uiso       1.00
        B2          B  0.7429601  0.7596899  0.7216322    0.00000       Uiso       1.00
        B3          B  0.6533790  0.5354491  0.7668033    0.00000       Uiso       1.00
      H303          H  0.6104092  0.5400054  0.6579170    0.00000       Uiso       1.00
      H304          H  0.6183228  0.5320649  0.6803510    0.00000       Uiso       1.00
      H305          H  0.6201932  0.5187227  0.7343476    0.00000       Uiso       1.00
      H306          H  0.6119092  0.5258960  0.7117729    0.00000       Uiso       1.00
      C601          C  0.3795415  0.6517218  0.5804008    0.00000       Uiso       1.00
      C602          C  0.3746420  0.6641059  0.5754939    0.00000       Uiso       1.00
      C603          C  0.3812799  0.6664800  0.5536047    0.00000       Uiso       1.00
      C604          C  0.3770618  0.6797643  0.5490437    0.00000       Uiso       1.00
      C605          C  0.3674066  0.6921760  0.5660340    0.00000       Uiso       1.00
      C606          C  0.3610859  0.6898152  0.5879247    0.00000       Uiso       1.00
      C607          C  0.3629111  0.6746281  0.5932341    0.00000       Uiso       1.00
       O55          O  0.3916786  0.6412397  0.5650250    0.00000       Uiso       1.00
      H307          H  0.3559500  0.7008224  0.6007050    0.00000       Uiso       1.00
      C608          C  0.2770026  0.7103233  0.7277585    0.00000       Uiso       1.00
      C609          C  0.2893811  0.7005217  0.7104874    0.00000       Uiso       1.00
      C610          C  0.2917416  0.6853271  0.7148393    0.00000       Uiso       1.00
      C611          C  0.3049162  0.6763799  0.6973464    0.00000       Uiso       1.00
      C612          C  0.3172187  0.6835394  0.6752211    0.00000       Uiso       1.00
      C613          C  0.3149182  0.6991488  0.6712299    0.00000       Uiso       1.00
      C614          C  0.2998419  0.7064312  0.6882365    0.00000       Uiso       1.00
       O56          O  0.2665101  0.7069651  0.7503474    0.00000       Uiso       1.00
      H308          H  0.2831567  0.6803054  0.7318513    0.00000       Uiso       1.00
      H309          H  0.3054707  0.6639966  0.7013780    0.00000       Uiso       1.00
      H310          H  0.3258595  0.7066844  0.6550347    0.00000       Uiso       1.00
      C615          C  0.3354793  0.7549356  0.5666481    0.00000       Uiso       1.00
      C616          C  0.3256941  0.7500652  0.5888203    0.00000       Uiso       1.00
      C617          C  0.3105088  0.7567973  0.6063734    0.00000       Uiso       1.00
      C618          C  0.3015715  0.7525091  0.6284984    0.00000       Uiso       1.00
      C619          C  0.3087314  0.7426890  0.6336423    0.00000       Uiso       1.00
      C620          C  0.3243223  0.7363672  0.6157270    0.00000       Uiso       1.00
      C621          C  0.3315884  0.7382756  0.5933693    0.00000       Uiso       1.00
       O57          O  0.3320084  0.7669775  0.5595886    0.00000       Uiso       1.00
      H311          H  0.3055008  0.7652181  0.6027852    0.00000       Uiso       1.00
      H312          H  0.2892019  0.7571176  0.6414227    0.00000       Uiso       1.00
      H313          H  0.3318788  0.7311093  0.6190931    0.00000       Uiso       1.00
      C622          C  0.3504854  0.7484147  0.5493550    0.00000       Uiso       1.00
      C623          C  0.3559398  0.7358494  0.5531598    0.00000       Uiso       1.00
      C624          C  0.3711606  0.7291226  0.5356397    0.00000       Uiso       1.00
      C625          C  0.3755746  0.7157605  0.5397895    0.00000       Uiso       1.00
      C626          C  0.3638161  0.7075720  0.5613423    0.00000       Uiso       1.00
      C627          C  0.3483351  0.7142563  0.5787308    0.00000       Uiso       1.00
      C628          C  0.3454898  0.7296888  0.5753318    0.00000       Uiso       1.00
       O58          O  0.3584001  0.7550170  0.5287291    0.00000       Uiso       1.00
      H314          H  0.3374693  0.7064030  0.5947444    0.00000       Uiso       1.00
      C629          C  0.2747262  0.7253057  0.7234983    0.00000       Uiso       1.00
      C630          C  0.2839814  0.7307558  0.7016888    0.00000       Uiso       1.00
      C631          C  0.2816240  0.7459683  0.6973623    0.00000       Uiso       1.00
      C632          C  0.2902992  0.7505408  0.6754199    0.00000       Uiso       1.00
      C633          C  0.3002415  0.7389069  0.6573603    0.00000       Uiso       1.00
      C634          C  0.3021000  0.7233562  0.6620984    0.00000       Uiso       1.00
      C635          C  0.2957448  0.7203711  0.6837854    0.00000       Uiso       1.00
       O59          O  0.2620934  0.7333508  0.7427475    0.00000       Uiso       1.00
      H315          H  0.2732019  0.7544173  0.7110835    0.00000       Uiso       1.00
      H316          H  0.2889721  0.7631010  0.6728220    0.00000       Uiso       1.00
      H317          H  0.3073491  0.7125610  0.6490383    0.00000       Uiso       1.00
      C636          C  0.3730206  0.6495001  0.6019449    0.00000       Uiso       1.00
      C637          C  0.3604784  0.6587613  0.6199519    0.00000       Uiso       1.00
      C638          C  0.3538096  0.6564150  0.6418486    0.00000       Uiso       1.00
      C639          C  0.3405491  0.6650932  0.6597050    0.00000       Uiso       1.00
      C640          C  0.3324331  0.6750370  0.6561987    0.00000       Uiso       1.00
      C641          C  0.3390300  0.6768934  0.6340466    0.00000       Uiso       1.00
      C642          C  0.3543510  0.6705251  0.6157207    0.00000       Uiso       1.00
       O60          O  0.3796721  0.6369433  0.6034420    0.00000       Uiso       1.00
      H318          H  0.3591242  0.6479931  0.6449652    0.00000       Uiso       1.00
      H319          H  0.3366381  0.6637646  0.6761824    0.00000       Uiso       1.00
      H320          H  0.3312432  0.6821432  0.6310340    0.00000       Uiso       1.00
        B4          B  0.3915945  0.6319078  0.5798301    0.00000       Uiso       1.00
        B5          B  0.2570413  0.7216321  0.7596894    0.00000       Uiso       1.00
        B6          B  0.3466223  0.7668035  0.5354488    0.00000       Uiso       1.00
      H321          H  0.3895920  0.6579171  0.5400052    0.00000       Uiso       1.00
      H322          H  0.3816783  0.6803511  0.5320646    0.00000       Uiso       1.00
      H323          H  0.3798079  0.7343478  0.5187225    0.00000       Uiso       1.00
      H324          H  0.3880920  0.7117732  0.5258958    0.00000       Uiso       1.00
      C643          C  0.1472404  0.0805141  0.5957460    0.00000       Uiso       1.00
      C644          C  0.1645063  0.0755987  0.5818396    0.00000       Uiso       1.00
      C645          C  0.1601851  0.0537090  0.5752475    0.00000       Uiso       1.00
      C646          C  0.1776718  0.0490686  0.5622069    0.00000       Uiso       1.00
      C647          C  0.1997325  0.0660228  0.5566281    0.00000       Uiso       1.00
      C648          C  0.2037021  0.0879119  0.5636622    0.00000       Uiso       1.00
      C649          C  0.1867254  0.0932729  0.5746971    0.00000       Uiso       1.00
       O61          O  0.1246753  0.0651045  0.6046745    0.00000       Uiso       1.00
      H325          H  0.1431987  0.0402784  0.5801795    0.00000       Uiso       1.00
      H326          H  0.1736916  0.0321139  0.5567470    0.00000       Uiso       1.00
      H327          H  0.2198352  0.1006802  0.5617216    0.00000       Uiso       1.00
      C650          C  0.3082356  0.2277079  0.5374461    0.00000       Uiso       1.00
      C651          C  0.2860579  0.2104396  0.5457311    0.00000       Uiso       1.00
      C652          C  0.2684945  0.2147630  0.5567154    0.00000       Uiso       1.00
      C653          C  0.2463713  0.1972747  0.5658117    0.00000       Uiso       1.00
      C654          C  0.2412644  0.1752111  0.5653415    0.00000       Uiso       1.00
      C655          C  0.2591789  0.1712396  0.5544481    0.00000       Uiso       1.00
      C656          C  0.2815117  0.1882160  0.5431356    0.00000       Uiso       1.00
       O62          O  0.3153920  0.2502777  0.5392159    0.00000       Uiso       1.00
      H328          H  0.2720519  0.2317527  0.5580899    0.00000       Uiso       1.00
      H329          H  0.2334005  0.2012562  0.5733321    0.00000       Uiso       1.00
      H330          H  0.2558146  0.1551062  0.5558738    0.00000       Uiso       1.00
      C657          C  0.2944143  0.0666667  0.4929539    0.00000       Uiso       1.00
      C658          C  0.2993253  0.0888498  0.4963273    0.00000       Uiso       1.00
      C659          C  0.3212074  0.1064135  0.4854150    0.00000       Uiso       1.00
      C660          C  0.3258441  0.1285427  0.4898745    0.00000       Uiso       1.00
      C661          C  0.3088948  0.1336567  0.5063687    0.00000       Uiso       1.00
      C662          C  0.2870138  0.1157420  0.5173710    0.00000       Uiso       1.00
      C663          C  0.2816548  0.0934017  0.5114170    0.00000       Uiso       1.00
       O63          O  0.3098214  0.0595047  0.4793032    0.00000       Uiso       1.00
      H331          H  0.3346349  0.1028523  0.4733508    0.00000       Uiso       1.00
      H332          H  0.3427922  0.1415129  0.4804351    0.00000       Uiso       1.00
      H333          H  0.2742511  0.1191134  0.5315716    0.00000       Uiso       1.00
      C664          C  0.2729614  0.0494516  0.5040432    0.00000       Uiso       1.00
      C665          C  0.2549547  0.0532511  0.5181241    0.00000       Uiso       1.00
      C666          C  0.2330640  0.0356986  0.5290287    0.00000       Uiso       1.00
      C667          C  0.2152112  0.0397893  0.5421609    0.00000       Uiso       1.00
      C668          C  0.2187307  0.0613310  0.5435663    0.00000       Uiso       1.00
      C669          C  0.2408735  0.0787371  0.5322495    0.00000       Uiso       1.00
      C670          C  0.2591830  0.0753755  0.5209563    0.00000       Uiso       1.00
       O64          O  0.2715713  0.0288070  0.4989813    0.00000       Uiso       1.00
      H334          H  0.2299248  0.0188426  0.5273738    0.00000       Uiso       1.00
      H335          H  0.1987095  0.0259216  0.5509799    0.00000       Uiso       1.00
      H336          H  0.2438690  0.0947604  0.5310721    0.00000       Uiso       1.00
      C671          C  0.3254510  0.2234658  0.5270682    0.00000       Uiso       1.00
      C672          C  0.3216564  0.2016579  0.5231280    0.00000       Uiso       1.00
      C673          C  0.3392090  0.1973151  0.5121273    0.00000       Uiso       1.00
      C674          C  0.3351223  0.1753696  0.5073931    0.00000       Uiso       1.00
      C675          C  0.3135834  0.1573492  0.5123190    0.00000       Uiso       1.00
      C676          C  0.2961770  0.1620906  0.5231596    0.00000       Uiso       1.00
      C677          C  0.2995365  0.1837648  0.5301891    0.00000       Uiso       1.00
       O65          O  0.3460904  0.2427175  0.5206182    0.00000       Uiso       1.00
      H337          H  0.3560621  0.2110303  0.5073327    0.00000       Uiso       1.00
      H338          H  0.3489906  0.1727324  0.4996991    0.00000       Uiso       1.00
      H339          H  0.2801541  0.1490635  0.5249794    0.00000       Uiso       1.00
      C678          C  0.1514808  0.1019749  0.6025960    0.00000       Uiso       1.00
      C679          C  0.1732836  0.1199848  0.5948612    0.00000       Uiso       1.00
      C680          C  0.1776247  0.1418833  0.6014259    0.00000       Uiso       1.00
      C681          C  0.1995642  0.1597380  0.5926049    0.00000       Uiso       1.00
      C682          C  0.2175791  0.1562119  0.5759799    0.00000       Uiso       1.00
      C683          C  0.2128394  0.1340612  0.5694016    0.00000       Uiso       1.00
      C684          C  0.1911730  0.1157512  0.5797892    0.00000       Uiso       1.00
       O66          O  0.1322324  0.1033685  0.6167976    0.00000       Uiso       1.00
      H340          H  0.1639138  0.1450278  0.6134941    0.00000       Uiso       1.00
      H341          H  0.2022013  0.1762466  0.5987888    0.00000       Uiso       1.00
      H342          H  0.2258610  0.1310590  0.5551904    0.00000       Uiso       1.00
        B7          B  0.1153078  0.0798285  0.6180046    0.00000       Uiso       1.00
        B8          B  0.3394785  0.2596461  0.5284436    0.00000       Uiso       1.00
        B9          B  0.2951048  0.0354151  0.4832556    0.00000       Uiso       1.00
      C685          C  0.8527604  0.5957468  0.0805146    0.00000       Uiso       1.00
      C686          C  0.8354944  0.5818403  0.0755992    0.00000       Uiso       1.00
      C687          C  0.8398155  0.5752482  0.0537095    0.00000       Uiso       1.00
      C688          C  0.8223289  0.5622076  0.0490691    0.00000       Uiso       1.00
      C689          C  0.8002681  0.5566288  0.0660233    0.00000       Uiso       1.00
      C690          C  0.7962986  0.5636628  0.0879124    0.00000       Uiso       1.00
      C691          C  0.8132753  0.5746979  0.0932734    0.00000       Uiso       1.00
       O67          O  0.8753254  0.6046753  0.0651051    0.00000       Uiso       1.00
      H343          H  0.8568020  0.5801802  0.0402789    0.00000       Uiso       1.00
      H344          H  0.8263091  0.5567476  0.0321144    0.00000       Uiso       1.00
      H345          H  0.7801656  0.5617222  0.1006807    0.00000       Uiso       1.00
      C692          C  0.6917651  0.5374466  0.2277082    0.00000       Uiso       1.00
      C693          C  0.7139429  0.5457317  0.2104398    0.00000       Uiso       1.00
      C694          C  0.7315063  0.5567160  0.2147633    0.00000       Uiso       1.00
      C695          C  0.7536294  0.5658123  0.1972750    0.00000       Uiso       1.00
      C696          C  0.7587364  0.5653421  0.1752114    0.00000       Uiso       1.00
      C697          C  0.7408218  0.5544486  0.1712399    0.00000       Uiso       1.00
      C698          C  0.7184891  0.5431362  0.1882163    0.00000       Uiso       1.00
       O68          O  0.6846089  0.5392163  0.2502779    0.00000       Uiso       1.00
      H346          H  0.7279490  0.5580904  0.2317530    0.00000       Uiso       1.00
      H347          H  0.7666003  0.5733327  0.2012566    0.00000       Uiso       1.00
      H348          H  0.7441861  0.5558744  0.1551066    0.00000       Uiso       1.00
      C699          C  0.7055864  0.4929544  0.0666671    0.00000       Uiso       1.00
      C700          C  0.7006753  0.4963278  0.0888501    0.00000       Uiso       1.00
      C701          C  0.6787933  0.4854154  0.1064138    0.00000       Uiso       1.00
      C702          C  0.6741565  0.4898750  0.1285429    0.00000       Uiso       1.00
      C703          C  0.6911058  0.5063692  0.1336569    0.00000       Uiso       1.00
      C704          C  0.7129869  0.5173715  0.1157424    0.00000       Uiso       1.00
      C705          C  0.7183458  0.5114176  0.0934020    0.00000       Uiso       1.00
       O69          O  0.6901793  0.4793037  0.0595051    0.00000       Uiso       1.00
      H349          H  0.6653657  0.4733513  0.1028526    0.00000       Uiso       1.00
      H350          H  0.6572084  0.4804355  0.1415132    0.00000       Uiso       1.00
      H351          H  0.7257496  0.5315722  0.1191137    0.00000       Uiso       1.00
      C706          C  0.7270392  0.5040437  0.0494520    0.00000       Uiso       1.00
      C707          C  0.7450460  0.5181247  0.0532515    0.00000       Uiso       1.00
      C708          C  0.7669366  0.5290293  0.0356990    0.00000       Uiso       1.00
      C709          C  0.7847894  0.5421615  0.0397897    0.00000       Uiso       1.00
      C710          C  0.7812700  0.5435669  0.0613315    0.00000       Uiso       1.00
      C711          C  0.7591271  0.5322500  0.0787375    0.00000       Uiso       1.00
      C712          C  0.7408176  0.5209569  0.0753758    0.00000       Uiso       1.00
       O70          O  0.7284293  0.4989819  0.0288074    0.00000       Uiso       1.00
      H352          H  0.7700758  0.5273744  0.0188430    0.00000       Uiso       1.00
      H353          H  0.8012911  0.5509806  0.0259221    0.00000       Uiso       1.00
      H354          H  0.7561317  0.5310727  0.0947607    0.00000       Uiso       1.00
      C713          C  0.6745498  0.5270687  0.2234660    0.00000       Uiso       1.00
      C714          C  0.6783444  0.5231285  0.2016581    0.00000       Uiso       1.00
      C715          C  0.6607918  0.5121278  0.1973153    0.00000       Uiso       1.00
      C716          C  0.6648784  0.5073935  0.1753698    0.00000       Uiso       1.00
      C717          C  0.6864173  0.5123194  0.1573495    0.00000       Uiso       1.00
      C718          C  0.7038237  0.5231601  0.1620909    0.00000       Uiso       1.00
      C719          C  0.7004643  0.5301896  0.1837651    0.00000       Uiso       1.00
       O71          O  0.6539104  0.5206187  0.2427176    0.00000       Uiso       1.00
      H355          H  0.6439387  0.5073331  0.2110305    0.00000       Uiso       1.00
      H356          H  0.6510100  0.4996995  0.1727327    0.00000       Uiso       1.00
      H357          H  0.7198466  0.5249799  0.1490638    0.00000       Uiso       1.00
      C720          C  0.8485199  0.6025968  0.1019754    0.00000       Uiso       1.00
      C721          C  0.8267172  0.5948619  0.1199853    0.00000       Uiso       1.00
      C722          C  0.8223761  0.6014266  0.1418838    0.00000       Uiso       1.00
      C723          C  0.8004366  0.5926056  0.1597385    0.00000       Uiso       1.00
      C724          C  0.7824216  0.5759805  0.1562123    0.00000       Uiso       1.00
      C725          C  0.7871614  0.5694022  0.1340616    0.00000       Uiso       1.00
      C726          C  0.8088278  0.5797899  0.1157516    0.00000       Uiso       1.00
       O72          O  0.8677684  0.6167983  0.1033690    0.00000       Uiso       1.00
      H358          H  0.8360870  0.6134949  0.1450282    0.00000       Uiso       1.00
      H359          H  0.7977995  0.5987895  0.1762469    0.00000       Uiso       1.00
      H360          H  0.7741398  0.5551910  0.1310594    0.00000       Uiso       1.00
       B10          B  0.8846930  0.6180054  0.0798290    0.00000       Uiso       1.00
       B11          B  0.6605223  0.5284441  0.2596463    0.00000       Uiso       1.00
       B12          B  0.7048958  0.4832562  0.0354155    0.00000       Uiso       1.00
      C727          C  0.3530169  0.1830420  0.9952408    0.00000       Uiso       1.00
      C728          C  0.3357433  0.1608442  0.0001286    0.00000       Uiso       1.00
      C729          C  0.3400149  0.1432203  0.9934725    0.00000       Uiso       1.00
      C730          C  0.3225223  0.1211489  0.9976788    0.00000       Uiso       1.00
      C731          C  0.3004577  0.1160628  0.0073397    0.00000       Uiso       1.00
      C732          C  0.2964897  0.1339918  0.0136783    0.00000       Uiso       1.00
      C733          C  0.3134921  0.1563212  0.0118654    0.00000       Uiso       1.00
       O73          O  0.3756329  0.1902956  0.9831001    0.00000       Uiso       1.00
      H361          H  0.2803481  0.1306218  0.0188184    0.00000       Uiso       1.00
      C734          C  0.1918824  0.1691874  0.0978398    0.00000       Uiso       1.00
      C735          C  0.2140604  0.1741063  0.0854559    0.00000       Uiso       1.00
      C736          C  0.2316058  0.1960213  0.0831071    0.00000       Uiso       1.00
      C737          C  0.2537255  0.2006601  0.0699267    0.00000       Uiso       1.00
      C738          C  0.2588761  0.1836801  0.0576068    0.00000       Uiso       1.00
      C739          C  0.2409759  0.1617709  0.0598956    0.00000       Uiso       1.00
      C740          C  0.2186197  0.1564088  0.0749771    0.00000       Uiso       1.00
       O74          O  0.1847413  0.1846389  0.1083493    0.00000       Uiso       1.00
      H362          H  0.2280366  0.2094685  0.0917056    0.00000       Uiso       1.00
      H363          H  0.2666557  0.2176352  0.0693816    0.00000       Uiso       1.00
      H364          H  0.2443873  0.1489829  0.0489414    0.00000       Uiso       1.00
      C741          C  0.2058127  0.0219475  0.0392253    0.00000       Uiso       1.00
      C742          C  0.2008901  0.0392027  0.0490281    0.00000       Uiso       1.00
      C743          C  0.1789747  0.0348287  0.0642192    0.00000       Uiso       1.00
      C744          C  0.1743178  0.0523025  0.0731742    0.00000       Uiso       1.00
      C745          C  0.1912880  0.0744340  0.0660266    0.00000       Uiso       1.00
      C746          C  0.2131989  0.0784413  0.0504294    0.00000       Uiso       1.00
      C747          C  0.2185642  0.0614436  0.0431457    0.00000       Uiso       1.00
       O75          O  0.1903108  0.9993685  0.0426828    0.00000       Uiso       1.00
      H365          H  0.1655535  0.0178055  0.0692180    0.00000       Uiso       1.00
      H366          H  0.1573416  0.0482412  0.0855477    0.00000       Uiso       1.00
      H367          H  0.2260061  0.0946275  0.0428817    0.00000       Uiso       1.00
      C748          C  0.2273379  0.0261911  0.0242133    0.00000       Uiso       1.00
      C749          C  0.2453478  0.0480237  0.0187704    0.00000       Uiso       1.00
      C750          C  0.2672935  0.0524610  0.0035437    0.00000       Uiso       1.00
      C751          C  0.2850598  0.0743945  0.9991410    0.00000       Uiso       1.00
      C752          C  0.2814816  0.0923761  0.0109176    0.00000       Uiso       1.00
      C753          C  0.2593185  0.0875894  0.0264042    0.00000       Uiso       1.00
      C754          C  0.2410504  0.0659044  0.0292382    0.00000       Uiso       1.00
       O76          O  0.2286589  0.0068782  0.0162808    0.00000       Uiso       1.00
      H368          H  0.2563002  0.1005891  0.0372830    0.00000       Uiso       1.00
      C755          C  0.1746334  0.1476607  0.1001046    0.00000       Uiso       1.00
      C756          C  0.1784465  0.1296581  0.0908316    0.00000       Uiso       1.00
      C757          C  0.1608863  0.1077536  0.0931774    0.00000       Uiso       1.00
      C758          C  0.1649971  0.0899158  0.0844843    0.00000       Uiso       1.00
      C759          C  0.1865716  0.0934421  0.0745356    0.00000       Uiso       1.00
      C760          C  0.2039710  0.1155972  0.0726891    0.00000       Uiso       1.00
      C761          C  0.2005928  0.1339127  0.0790622    0.00000       Uiso       1.00
       O77          O  0.1539560  0.1462227  0.1127455    0.00000       Uiso       1.00
      H369          H  0.1440167  0.1045963  0.1016041    0.00000       Uiso       1.00
      H370          H  0.1511170  0.0734244  0.0858029    0.00000       Uiso       1.00
      H371          H  0.2200139  0.1185886  0.0674355    0.00000       Uiso       1.00
      C762          C  0.3487100  0.2002853  0.0017795    0.00000       Uiso       1.00
      C763          C  0.3269082  0.1964792  0.0143281    0.00000       Uiso       1.00
      C764          C  0.3225779  0.2140514  0.0210146    0.00000       Uiso       1.00
      C765          C  0.3006410  0.2099594  0.0342812    0.00000       Uiso       1.00
      C766          C  0.2825908  0.1883852  0.0423859    0.00000       Uiso       1.00
      C767          C  0.2873391  0.1709755  0.0357713    0.00000       Uiso       1.00
      C768          C  0.3090269  0.1743487  0.0204436    0.00000       Uiso       1.00
       O78          O  0.3679090  0.2209989  0.9951375    0.00000       Uiso       1.00
      H372          H  0.3363068  0.2309106  0.0157088    0.00000       Uiso       1.00
      H373          H  0.2980524  0.2238532  0.0382057    0.00000       Uiso       1.00
      H374          H  0.2743097  0.1549206  0.0435496    0.00000       Uiso       1.00
       B13          B  0.3848700  0.2143525  0.9832014    0.00000       Uiso       1.00
       B14          B  0.1606121  0.1698343  0.1178156    0.00000       Uiso       1.00
       B15          B  0.2051030  0.9900233  0.0280539    0.00000       Uiso       1.00
      H375          H  0.3568883  0.1465032  0.9851559    0.00000       Uiso       1.00
      H376          H  0.3265578  0.1082014  0.9930488    0.00000       Uiso       1.00
      H377          H  0.2707216  0.0389671  0.9948822    0.00000       Uiso       1.00
      H378          H  0.3015634  0.0770130  0.9866185    0.00000       Uiso       1.00
      C769          C  0.8821980  0.2125868  0.5218120    0.00000       Uiso       1.00
      C770          C  0.8788422  0.2043103  0.5390720    0.00000       Uiso       1.00
      C771          C  0.8897604  0.1933388  0.5347362    0.00000       Uiso       1.00
      C772          C  0.8853184  0.1842503  0.5522166    0.00000       Uiso       1.00
      C773          C  0.8688362  0.1847152  0.5742852    0.00000       Uiso       1.00
      C774          C  0.8578278  0.1955958  0.5782693    0.00000       Uiso       1.00
      C775          C  0.8637643  0.2069011  0.5613002    0.00000       Uiso       1.00
       O79          O  0.8958353  0.2108199  0.4992392    0.00000       Uiso       1.00
      H379          H  0.9018154  0.1919680  0.5177431    0.00000       Uiso       1.00
      H380          H  0.8947619  0.1767400  0.5482255    0.00000       Uiso       1.00
      H381          H  0.8436359  0.1941652  0.5944074    0.00000       Uiso       1.00
      C776          C  0.7794830  0.2570392  0.6828927    0.00000       Uiso       1.00
      C777          C  0.7933772  0.2536698  0.6607058    0.00000       Uiso       1.00
      C778          C  0.7999514  0.2645754  0.6431493    0.00000       Uiso       1.00
      C779          C  0.8129802  0.2601197  0.6210163    0.00000       Uiso       1.00
      C780          C  0.8185648  0.2436358  0.6158921    0.00000       Uiso       1.00
      C781          C  0.8115486  0.2326400  0.6337999    0.00000       Uiso       1.00
      C782          C  0.8005257  0.2385912  0.6561429    0.00000       Uiso       1.00
       O80          O  0.7705509  0.2706790  0.6900652    0.00000       Uiso       1.00
      H382          H  0.7950143  0.2766311  0.6467196    0.00000       Uiso       1.00
      H383          H  0.8184265  0.2695542  0.6080515    0.00000       Uiso       1.00
      H384          H  0.8134934  0.2184460  0.6304221    0.00000       Uiso       1.00
      C783          C  0.8378423  0.1543377  0.6689535    0.00000       Uiso       1.00
      C784          C  0.8295517  0.1682325  0.6738807    0.00000       Uiso       1.00
      C785          C  0.8185791  0.1748216  0.6957735    0.00000       Uiso       1.00
      C786          C  0.8094770  0.1878504  0.7004260    0.00000       Uiso       1.00
      C787          C  0.8099295  0.1934198  0.6834815    0.00000       Uiso       1.00
      C788          C  0.8208115  0.1863888  0.6615893    0.00000       Uiso       1.00
      C789          C  0.8321292  0.1753664  0.6562154    0.00000       Uiso       1.00
       O81          O  0.8360900  0.1454185  0.6843534    0.00000       Uiso       1.00
      H385          H  0.8172179  0.1698965  0.7091972    0.00000       Uiso       1.00
      H386          H  0.8019660  0.1933087  0.7173823    0.00000       Uiso       1.00
      H387          H  0.8193726  0.1883215  0.6488290    0.00000       Uiso       1.00
      C790          C  0.8482090  0.1474908  0.6474900    0.00000       Uiso       1.00
      C791          C  0.8521314  0.1552178  0.6294883    0.00000       Uiso       1.00
      C792          C  0.8631203  0.1486563  0.6075869    0.00000       Uiso       1.00
      C793          C  0.8678369  0.1574697  0.5897400    0.00000       Uiso       1.00
      C794          C  0.8629047  0.1740844  0.5932764    0.00000       Uiso       1.00
      C795          C  0.8520758  0.1806596  0.6154300    0.00000       Uiso       1.00
      C796          C  0.8450640  0.1702784  0.6337333    0.00000       Uiso       1.00
       O82          O  0.8546672  0.1333010  0.6460842    0.00000       Uiso       1.00
      H388          H  0.8679197  0.1365965  0.6044348    0.00000       Uiso       1.00
      H389          H  0.8755223  0.1512881  0.5732293    0.00000       Uiso       1.00
      H390          H  0.8502513  0.1948639  0.6184390    0.00000       Uiso       1.00
      C797          C  0.7726504  0.2459566  0.7001013    0.00000       Uiso       1.00
      C798          C  0.7803916  0.2318870  0.6962906    0.00000       Uiso       1.00
      C799          C  0.7738445  0.2209893  0.7138364    0.00000       Uiso       1.00
      C800          C  0.7826714  0.2078687  0.7097340    0.00000       Uiso       1.00
      C801          C  0.7992850  0.2064688  0.6881864    0.00000       Uiso       1.00
      C802          C  0.8058456  0.2177789  0.6707872    0.00000       Uiso       1.00
      C803          C  0.7954517  0.2290595  0.6741614    0.00000       Uiso       1.00
       O83          O  0.7584589  0.2510125  0.7207515    0.00000       Uiso       1.00
      H391          H  0.7617854  0.2226407  0.7306963    0.00000       Uiso       1.00
      H392          H  0.7765009  0.1990544  0.7235972    0.00000       Uiso       1.00
      H393          H  0.8200482  0.2189612  0.6547591    0.00000       Uiso       1.00
      C804          C  0.8711029  0.2229521  0.5260667    0.00000       Uiso       1.00
      C805          C  0.8570333  0.2268878  0.5478792    0.00000       Uiso       1.00
      C806          C  0.8461225  0.2378756  0.5522350    0.00000       Uiso       1.00
      C807          C  0.8330019  0.2426059  0.5741847    0.00000       Uiso       1.00
      C808          C  0.8316143  0.2376893  0.5921957    0.00000       Uiso       1.00
      C809          C  0.8429371  0.2268616  0.5874413    0.00000       Uiso       1.00
      C810          C  0.8542190  0.2198355  0.5657636    0.00000       Uiso       1.00
       O84          O  0.8761469  0.2293949  0.5068217    0.00000       Uiso       1.00
      H394          H  0.8477631  0.2426635  0.5385276    0.00000       Uiso       1.00
      H395          H  0.8241775  0.2502895  0.5768325    0.00000       Uiso       1.00
      H396          H  0.8441275  0.2250496  0.6004606    0.00000       Uiso       1.00
       B16          B  0.8918679  0.2215795  0.4898831    0.00000       Uiso       1.00
       B17          B  0.7572383  0.2667271  0.7141542    0.00000       Uiso       1.00
       B18          B  0.8468599  0.1320978  0.6696202    0.00000       Uiso       1.00
      C811          C  0.7947887  0.0402360  0.0223350    0.00000       Uiso       1.00
      C812          C  0.7997089  0.0500500  0.0396151    0.00000       Uiso       1.00
      C813          C  0.8215972  0.0652995  0.0353474    0.00000       Uiso       1.00
      C814          C  0.8261722  0.0740866  0.0528457    0.00000       Uiso       1.00
      C815          C  0.8091972  0.0667612  0.0749114    0.00000       Uiso       1.00
      C816          C  0.7873071  0.0511930  0.0788753    0.00000       Uiso       1.00
      C817          C  0.7819834  0.0440508  0.0618688    0.00000       Uiso       1.00
       O85          O  0.8101497  0.0434641  0.9997145    0.00000       Uiso       1.00
      H397          H  0.7745390  0.0435559  0.0950157    0.00000       Uiso       1.00
      C818          C  0.6475300  0.9954893  0.1834951    0.00000       Uiso       1.00
      C819          C  0.6647860  0.0003719  0.1613138    0.00000       Uiso       1.00
      C820          C  0.6604204  0.9936518  0.1437643    0.00000       Uiso       1.00
      C821          C  0.6778993  0.9979602  0.1216407    0.00000       Uiso       1.00
      C822          C  0.7000247  0.0077805  0.1164890    0.00000       Uiso       1.00
      C823          C  0.7040309  0.0140802  0.1343930    0.00000       Uiso       1.00
      C824          C  0.6870375  0.0121599  0.1567551    0.00000       Uiso       1.00
       O86          O  0.6249428  0.9833961  0.1906355    0.00000       Uiso       1.00
      H398          H  0.6434077  0.9852263  0.1473337    0.00000       Uiso       1.00
      H399          H  0.6738564  0.9933683  0.1087083    0.00000       Uiso       1.00
      H400          H  0.7202280  0.0193326  0.1309791    0.00000       Uiso       1.00
      C825          C  0.8086536  0.0981170  0.1695845    0.00000       Uiso       1.00
      C826          C  0.7864813  0.0857320  0.1745059    0.00000       Uiso       1.00
      C827          C  0.7689410  0.0833739  0.1964270    0.00000       Uiso       1.00
      C828          C  0.7468162  0.0701883  0.2010820    0.00000       Uiso       1.00
      C829          C  0.7416603  0.0578770  0.1841032    0.00000       Uiso       1.00
      C830          C  0.7595629  0.0601915  0.1621864    0.00000       Uiso       1.00
      C831          C  0.7819191  0.0752807  0.1568246    0.00000       Uiso       1.00
       O87          O  0.8157254  0.1086542  0.1850936    0.00000       Uiso       1.00
      H401          H  0.7725391  0.0919763  0.2098544    0.00000       Uiso       1.00
      H402          H  0.7339014  0.0696411  0.2180636    0.00000       Uiso       1.00
      H403          H  0.7561888  0.0492632  0.1493710    0.00000       Uiso       1.00
      C832          C  0.8259341  0.1003943  0.1480537    0.00000       Uiso       1.00
      C833          C  0.8221156  0.0911270  0.1300372    0.00000       Uiso       1.00
      C834          C  0.8396229  0.0934165  0.1080858    0.00000       Uiso       1.00
      C835          C  0.8354592  0.0848448  0.0903137    0.00000       Uiso       1.00
      C836          C  0.8139043  0.0750520  0.0938927    0.00000       Uiso       1.00
      C837          C  0.7965287  0.0731544  0.1160618    0.00000       Uiso       1.00
      C838          C  0.7999428  0.0794068  0.1343340    0.00000       Uiso       1.00
       O88          O  0.8465624  0.1131049  0.1467348    0.00000       Uiso       1.00
      H404          H  0.7805129  0.0680079  0.1190827    0.00000       Uiso       1.00
      C839          C  0.6518039  0.0020335  0.2007481    0.00000       Uiso       1.00
      C840          C  0.6736140  0.0145860  0.1969364    0.00000       Uiso       1.00
      C841          C  0.6779553  0.0212779  0.2145006    0.00000       Uiso       1.00
      C842          C  0.6998979  0.0345433  0.2103919    0.00000       Uiso       1.00
      C843          C  0.7179427  0.0426509  0.1888166    0.00000       Uiso       1.00
      C844          C  0.7131898  0.0360466  0.1714135    0.00000       Uiso       1.00
      C845          C  0.6915030  0.0207162  0.1747877    0.00000       Uiso       1.00
       O89          O  0.6325683  0.9954265  0.2214281    0.00000       Uiso       1.00
      H405          H  0.6642454  0.0159862  0.2313716    0.00000       Uiso       1.00
      H406          H  0.7025077  0.0384744  0.2242743    0.00000       Uiso       1.00
      H407          H  0.7262379  0.0438504  0.1553717    0.00000       Uiso       1.00
      C846          C  0.7732455  0.0252147  0.0266381    0.00000       Uiso       1.00
      C847          C  0.7552524  0.0197596  0.0484430    0.00000       Uiso       1.00
      C848          C  0.7333565  0.0045337  0.0527695    0.00000       Uiso       1.00
      C849          C  0.7155146  0.9999477  0.0747102    0.00000       Uiso       1.00
      C850          C  0.7190326  0.0115778  0.0927692    0.00000       Uiso       1.00
      C851          C  0.7411836  0.0271311  0.0880250    0.00000       Uiso       1.00
      C852          C  0.7594970  0.0301262  0.0663316    0.00000       Uiso       1.00
       O90          O  0.7717342  0.0170575  0.0074325    0.00000       Uiso       1.00
      H408          H  0.7302309  0.9960965  0.0390344    0.00000       Uiso       1.00
      H409          H  0.6990378  0.9873824  0.0772950    0.00000       Uiso       1.00
      H410          H  0.7442043  0.0379362  0.1010627    0.00000       Uiso       1.00
       B19          B  0.7953364  0.0287391  0.9904709    0.00000       Uiso       1.00
       B20          B  0.6156181  0.9835336  0.2147690    0.00000       Uiso       1.00
       B21          B  0.8398585  0.1181735  0.1702991    0.00000       Uiso       1.00
      H411          H  0.8351854  0.0705795  0.0184726    0.00000       Uiso       1.00
      H412          H  0.8431496  0.0864473  0.0488137    0.00000       Uiso       1.00
      H413          H  0.8565410  0.1016848  0.1046575    0.00000       Uiso       1.00
      H414          H  0.8493438  0.0862136  0.0738051    0.00000       Uiso       1.00
      C853          C  0.1178028  0.5218119  0.2125865    0.00000       Uiso       1.00
      C854          C  0.1211586  0.5390719  0.2043100    0.00000       Uiso       1.00
      C855          C  0.1102404  0.5347361  0.1933385    0.00000       Uiso       1.00
      C856          C  0.1146824  0.5522166  0.1842500    0.00000       Uiso       1.00
      C857          C  0.1311646  0.5742852  0.1847149    0.00000       Uiso       1.00
      C858          C  0.1421730  0.5782693  0.1955955    0.00000       Uiso       1.00
      C859          C  0.1362365  0.5613002  0.2069008    0.00000       Uiso       1.00
       O91          O  0.1041654  0.4992391  0.2108196    0.00000       Uiso       1.00
      H415          H  0.0981854  0.5177431  0.1919677    0.00000       Uiso       1.00
      H416          H  0.1052389  0.5482255  0.1767397    0.00000       Uiso       1.00
      H417          H  0.1563649  0.5944075  0.1941650    0.00000       Uiso       1.00
      C860          C  0.2205180  0.6828929  0.2570390    0.00000       Uiso       1.00
      C861          C  0.2066237  0.6607059  0.2536696    0.00000       Uiso       1.00
      C862          C  0.2000495  0.6431493  0.2645751    0.00000       Uiso       1.00
      C863          C  0.1870206  0.6210163  0.2601195    0.00000       Uiso       1.00
      C864          C  0.1814361  0.6158921  0.2436355    0.00000       Uiso       1.00
      C865          C  0.1884523  0.6338000  0.2326398    0.00000       Uiso       1.00
      C866          C  0.1994752  0.6561429  0.2385910    0.00000       Uiso       1.00
       O92          O  0.2294501  0.6900654  0.2706788    0.00000       Uiso       1.00
      H418          H  0.2049867  0.6467196  0.2766308    0.00000       Uiso       1.00
      H419          H  0.1815744  0.6080515  0.2695539    0.00000       Uiso       1.00
      H420          H  0.1865074  0.6304222  0.2184458    0.00000       Uiso       1.00
      C867          C  0.1621585  0.6689535  0.1543375    0.00000       Uiso       1.00
      C868          C  0.1704492  0.6738808  0.1682324    0.00000       Uiso       1.00
      C869          C  0.1814218  0.6957736  0.1748215    0.00000       Uiso       1.00
      C870          C  0.1905240  0.7004261  0.1878503    0.00000       Uiso       1.00
      C871          C  0.1900713  0.6834816  0.1934196    0.00000       Uiso       1.00
      C872          C  0.1791894  0.6615893  0.1863886    0.00000       Uiso       1.00
      C873          C  0.1678716  0.6562155  0.1753662    0.00000       Uiso       1.00
       O93          O  0.1639109  0.6843535  0.1454183    0.00000       Uiso       1.00
      H421          H  0.1827830  0.7091974  0.1698963    0.00000       Uiso       1.00
      H422          H  0.1980350  0.7173824  0.1933086    0.00000       Uiso       1.00
      H423          H  0.1806283  0.6488291  0.1883213    0.00000       Uiso       1.00
      C874          C  0.1517919  0.6474900  0.1474906    0.00000       Uiso       1.00
      C875          C  0.1478695  0.6294884  0.1552176    0.00000       Uiso       1.00
      C876          C  0.1368805  0.6075869  0.1486561    0.00000       Uiso       1.00
      C877          C  0.1321639  0.5897399  0.1574695    0.00000       Uiso       1.00
      C878          C  0.1370962  0.5932764  0.1740842    0.00000       Uiso       1.00
      C879          C  0.1479251  0.6154300  0.1806593    0.00000       Uiso       1.00
      C880          C  0.1549368  0.6337333  0.1702782    0.00000       Uiso       1.00
       O94          O  0.1453336  0.6460842  0.1333008    0.00000       Uiso       1.00
      H424          H  0.1320810  0.6044348  0.1365963    0.00000       Uiso       1.00
      H425          H  0.1244785  0.5732293  0.1512879    0.00000       Uiso       1.00
      H426          H  0.1497496  0.6184390  0.1948637    0.00000       Uiso       1.00
      C881          C  0.2273505  0.7001014  0.2459564    0.00000       Uiso       1.00
      C882          C  0.2196093  0.6962907  0.2318868    0.00000       Uiso       1.00
      C883          C  0.2261564  0.7138366  0.2209892    0.00000       Uiso       1.00
      C884          C  0.2173296  0.7097341  0.2078686    0.00000       Uiso       1.00
      C885          C  0.2007159  0.6881865  0.2064686    0.00000       Uiso       1.00
      C886          C  0.1941553  0.6707874  0.2177787    0.00000       Uiso       1.00
      C887          C  0.2045493  0.6741616  0.2290593    0.00000       Uiso       1.00
       O95          O  0.2415421  0.7207516  0.2510124    0.00000       Uiso       1.00
      H427          H  0.2382155  0.7306964  0.2226406    0.00000       Uiso       1.00
      H428          H  0.2235000  0.7235974  0.1990543    0.00000       Uiso       1.00
      H429          H  0.1799527  0.6547592  0.2189610    0.00000       Uiso       1.00
      C888          C  0.1288978  0.5260665  0.2229518    0.00000       Uiso       1.00
      C889          C  0.1429675  0.5478791  0.2268875    0.00000       Uiso       1.00
      C890          C  0.1538783  0.5522349  0.2378753    0.00000       Uiso       1.00
      C891          C  0.1669990  0.5741847  0.2426056    0.00000       Uiso       1.00
      C892          C  0.1683866  0.5921957  0.2376890    0.00000       Uiso       1.00
      C893          C  0.1570638  0.5874413  0.2268614    0.00000       Uiso       1.00
      C894          C  0.1457818  0.5657635  0.2198352    0.00000       Uiso       1.00
       O96          O  0.1238538  0.5068216  0.2293946    0.00000       Uiso       1.00
      H430          H  0.1522377  0.5385275  0.2426632    0.00000       Uiso       1.00
      H431          H  0.1758234  0.5768325  0.2502892    0.00000       Uiso       1.00
      H432          H  0.1558733  0.6004606  0.2250494    0.00000       Uiso       1.00
       B22          B  0.1081328  0.4898830  0.2215791    0.00000       Uiso       1.00
       B23          B  0.2427626  0.7141544  0.2667270    0.00000       Uiso       1.00
       B24          B  0.1531408  0.6696202  0.1320976    0.00000       Uiso       1.00
