data_27
_audit_creation_date              0000-00-00
_audit_creation_method            'LanYouShi'
_symmetry_space_group_name_H-M    'P1'
_cell_length_a                    84.9225998
_cell_length_b                    73.5671005
_cell_length_c                    73.5671005
_cell_angle_alpha                 70.5409012
_cell_angle_beta                  54.7477989
_cell_angle_gamma                 54.7476997
loop_
_atom_site_label
_atom_site_type_symbol
_atom_site_fract_x
_atom_site_fract_y
_atom_site_fract_z
_atom_site_U_iso_or_equiv
_atom_site_adp_type
_atom_site_occupancy
        C1          C  0.5000002  0.5000000  0.4999996    0.00000       Uiso       1.00
        C2          C  0.3238290  0.6357540  0.5712990    0.00000       Uiso       1.00
        C3          C  0.3317910  0.6126804  0.5759009    0.00000       Uiso       1.00
        C4          C  0.3163534  0.6050818  0.5907801    0.00000       Uiso       1.00
        C5          C  0.2932286  0.6203930  0.6011683    0.00000       Uiso       1.00
        C6          C  0.2852666  0.6435089  0.5967672    0.00000       Uiso       1.00
        C7          C  0.3006989  0.6511022  0.5817665    0.00000       Uiso       1.00
        C8          C  0.5923078  0.5759016  0.3873194    0.00000       Uiso       1.00
        C9          C  0.6048717  0.5712997  0.3642459    0.00000       Uiso       1.00
       C10          C  0.5928662  0.5907809  0.3949180    0.00000       Uiso       1.00
       C11          C  0.6056027  0.6011690  0.3796068    0.00000       Uiso       1.00
       C12          C  0.6179658  0.5967679  0.3564911    0.00000       Uiso       1.00
       C13          C  0.6175342  0.5817672  0.3488978    0.00000       Uiso       1.00
       C14          C  0.5203728  0.3873197  0.4240981    0.00000       Uiso       1.00
       C15          C  0.5308824  0.3642460  0.4286999    0.00000       Uiso       1.00
       C16          C  0.5122158  0.3949182  0.4092188    0.00000       Uiso       1.00
       C17          C  0.5147905  0.3796070  0.3988306    0.00000       Uiso       1.00
       C18          C  0.5255432  0.3564912  0.4032317    0.00000       Uiso       1.00
       C19          C  0.5335681  0.3488979  0.4182324    0.00000       Uiso       1.00
       C20          C  0.5555292  0.4240985  0.6126800    0.00000       Uiso       1.00
       C21          C  0.5404177  0.4287004  0.6357535    0.00000       Uiso       1.00
       C22          C  0.5785653  0.4092192  0.6050814    0.00000       Uiso       1.00
       C23          C  0.5863789  0.3988310  0.6203927    0.00000       Uiso       1.00
       C24          C  0.5712251  0.4032321  0.6435084    0.00000       Uiso       1.00
       C25          C  0.5481995  0.4182329  0.6511017    0.00000       Uiso       1.00
        F1          F  0.6057862  0.6167682  0.3881193    0.00000       Uiso       1.00
        F2          F  0.5060945  0.3881195  0.3832314    0.00000       Uiso       1.00
        F3          F  0.5318821  0.4233367  0.6752549    0.00000       Uiso       1.00
        F4          F  0.2774460  0.6118807  0.6167675    0.00000       Uiso       1.00
        F5          F  0.6304739  0.5766633  0.3247445    0.00000       Uiso       1.00
        F6          F  0.6106740  0.3832318  0.6118802    0.00000       Uiso       1.00
        F7          F  0.5447816  0.3247446  0.4233363    0.00000       Uiso       1.00
        F8          F  0.2928631  0.6752554  0.5766626    0.00000       Uiso       1.00
        F9          F  0.5800446  0.5956276  0.4191220    0.00000       Uiso       1.00
       F10          F  0.6051129  0.5553642  0.3556893    0.00000       Uiso       1.00
       F11          F  0.5008333  0.4191223  0.4043720    0.00000       Uiso       1.00
       F12          F  0.5391979  0.3556895  0.4446355    0.00000       Uiso       1.00
       F13          F  0.5161667  0.4446358  0.6443101    0.00000       Uiso       1.00
       F14          F  0.5947946  0.4043724  0.5808774    0.00000       Uiso       1.00
       F15          F  0.3243282  0.5808777  0.5956269    0.00000       Uiso       1.00
       F16          F  0.3395232  0.6443106  0.5553636    0.00000       Uiso       1.00
       C26          C  0.3945244  0.5828710  0.5314133    0.00000       Uiso       1.00
       C27          C  0.4035599  0.5641851  0.5432715    0.00000       Uiso       1.00
       C28          C  0.3892778  0.5612683  0.5657037    0.00000       Uiso       1.00
       C29          C  0.3661410  0.5770343  0.5761496    0.00000       Uiso       1.00
       C30          C  0.3567147  0.5959669  0.5645854    0.00000       Uiso       1.00
       C31          C  0.3713570  0.5985735  0.5420654    0.00000       Uiso       1.00
        H1          H  0.3647273  0.6126198  0.5326097    0.00000       Uiso       1.00
        H2          H  0.3555458  0.5746517  0.5934358    0.00000       Uiso       1.00
       C32          C  0.5531684  0.5432721  0.4358147    0.00000       Uiso       1.00
       C33          C  0.5740620  0.5314139  0.4171288    0.00000       Uiso       1.00
       C34          C  0.5450183  0.5657043  0.4387315    0.00000       Uiso       1.00
       C35          C  0.5577091  0.5761502  0.4229655    0.00000       Uiso       1.00
       C36          C  0.5786996  0.5645860  0.4040329    0.00000       Uiso       1.00
       C37          C  0.5865773  0.5420660  0.4014263    0.00000       Uiso       1.00
        H3          H  0.6026627  0.5326104  0.3873799    0.00000       Uiso       1.00
        H4          H  0.5510183  0.5934365  0.4253480    0.00000       Uiso       1.00
       C38          C  0.5110170  0.4358149  0.4567276    0.00000       Uiso       1.00
       C39          C  0.5088090  0.4171291  0.4685858    0.00000       Uiso       1.00
       C40          C  0.5162506  0.4387316  0.4342952    0.00000       Uiso       1.00
       C41          C  0.5193256  0.4229656  0.4238494    0.00000       Uiso       1.00
       C42          C  0.5172676  0.4040331  0.4354136    0.00000       Uiso       1.00
       C43          C  0.5119962  0.4014266  0.4579336    0.00000       Uiso       1.00
        H5          H  0.5099570  0.3873804  0.4673894    0.00000       Uiso       1.00
        H6          H  0.5236340  0.4253481  0.4065631    0.00000       Uiso       1.00
       C44          C  0.5322555  0.4567280  0.5641847    0.00000       Uiso       1.00
       C45          C  0.5226050  0.4685861  0.5828707    0.00000       Uiso       1.00
       C46          C  0.5494545  0.4342957  0.5612679    0.00000       Uiso       1.00
       C47          C  0.5568253  0.4238498  0.5770338    0.00000       Uiso       1.00
       C48          C  0.5473189  0.4354140  0.5959665    0.00000       Uiso       1.00
       C49          C  0.5300700  0.4579339  0.5985731    0.00000       Uiso       1.00
        H7          H  0.5226533  0.4673897  0.6126195    0.00000       Uiso       1.00
        H8          H  0.5698032  0.4065636  0.5746513    0.00000       Uiso       1.00
       C50          C  0.4089383  0.5853664  0.5089794    0.00000       Uiso       1.00
       C51          C  0.4318708  0.5696976  0.4985100    0.00000       Uiso       1.00
       C52          C  0.3985034  0.5424950  0.5772550    0.00000       Uiso       1.00
       C53          C  0.4214496  0.5269049  0.5667954    0.00000       Uiso       1.00
       C54          C  0.5182540  0.4575048  0.4227439    0.00000       Uiso       1.00
       C55          C  0.5151508  0.4730949  0.4332035    0.00000       Uiso       1.00
       C56          C  0.5590023  0.4227445  0.5424945    0.00000       Uiso       1.00
       C57          C  0.5516461  0.4332041  0.5269045    0.00000       Uiso       1.00
       C58          C  0.5056955  0.4910200  0.5853661    0.00000       Uiso       1.00
       C59          C  0.4984318  0.5014895  0.5696973    0.00000       Uiso       1.00
        H9          H  0.4980439  0.5005478  0.5994920    0.00000       Uiso       1.00
       H10          H  0.4853653  0.5187759  0.5722111    0.00000       Uiso       1.00
       H11          H  0.5722451  0.4055324  0.5398214    0.00000       Uiso       1.00
       H12          H  0.5593964  0.4237461  0.5126812    0.00000       Uiso       1.00
       H13          H  0.4279225  0.5126817  0.5762534    0.00000       Uiso       1.00
       H14          H  0.3879336  0.5398220  0.5944672    0.00000       Uiso       1.00
       H15          H  0.4424235  0.5722113  0.4812235    0.00000       Uiso       1.00
       H16          H  0.4024640  0.5994923  0.4994516    0.00000       Uiso       1.00
       H17          H  0.5168586  0.4873180  0.4237455    0.00000       Uiso       1.00
       H18          H  0.5222237  0.4601777  0.4055318    0.00000       Uiso       1.00
       C60          C  0.4642861  0.5353919  0.4998156    0.00000       Uiso       1.00
       C61          C  0.4740815  0.5171637  0.5116960    0.00000       Uiso       1.00
       C62          C  0.4591005  0.5141163  0.5339141    0.00000       Uiso       1.00
       C63          C  0.4359008  0.5296600  0.5444937    0.00000       Uiso       1.00
       C64          C  0.4269056  0.5483561  0.5326658    0.00000       Uiso       1.00
       C65          C  0.4411297  0.5511235  0.5101873    0.00000       Uiso       1.00
       H19          H  0.4748251  0.5375180  0.4824128    0.00000       Uiso       1.00
       H20          H  0.4654994  0.4995922  0.5431312    0.00000       Uiso       1.00
       C66          C  0.5142223  0.5116965  0.4828359    0.00000       Uiso       1.00
       C67          C  0.5358982  0.4998161  0.4646079    0.00000       Uiso       1.00
       C68          C  0.5069854  0.5339146  0.4858832    0.00000       Uiso       1.00
       C69          C  0.5196052  0.5444943  0.4703396    0.00000       Uiso       1.00
       C70          C  0.5404284  0.5326664  0.4516436    0.00000       Uiso       1.00
       C71          C  0.5486828  0.5101879  0.4488762    0.00000       Uiso       1.00
       H21          H  0.5427620  0.4824132  0.4624818    0.00000       Uiso       1.00
       H22          H  0.4913692  0.5431318  0.5004073    0.00000       Uiso       1.00
       C72          C  0.5029417  0.4828363  0.4883032    0.00000       Uiso       1.00
       C73          C  0.4994939  0.4646083  0.5001835    0.00000       Uiso       1.00
       C74          C  0.5071315  0.4858836  0.4660850    0.00000       Uiso       1.00
       C75          C  0.5100553  0.4703398  0.4555053    0.00000       Uiso       1.00
       C76          C  0.5079281  0.4516439  0.4673332    0.00000       Uiso       1.00
       C77          C  0.5024408  0.4488766  0.4898118    0.00000       Uiso       1.00
       H23          H  0.4947560  0.4624823  0.5175864    0.00000       Uiso       1.00
       H24          H  0.5082235  0.5004076  0.4568678    0.00000       Uiso       1.00
       C78          C  0.5087551  0.4883036  0.5171633    0.00000       Uiso       1.00
       C79          C  0.5003224  0.5001839  0.5353914    0.00000       Uiso       1.00
       C80          C  0.5267836  0.4660855  0.5141160    0.00000       Uiso       1.00
       C81          C  0.5344396  0.4555057  0.5296596    0.00000       Uiso       1.00
       C82          C  0.5247387  0.4673336  0.5483558    0.00000       Uiso       1.00
       C83          C  0.5077471  0.4898122  0.5511231    0.00000       Uiso       1.00
       H25          H  0.4876572  0.5175868  0.5375175    0.00000       Uiso       1.00
       H26          H  0.5349088  0.4568684  0.4995919    0.00000       Uiso       1.00
       C84          C  0.5696189  0.4985105  0.4303021    0.00000       Uiso       1.00
       C85          C  0.5820820  0.5089800  0.4146334    0.00000       Uiso       1.00
       C86          C  0.5117548  0.5667960  0.4730947    0.00000       Uiso       1.00
       C87          C  0.5242414  0.5772557  0.4575048    0.00000       Uiso       1.00
       C88          C  0.5000786  0.4303026  0.5014892    0.00000       Uiso       1.00
       C89          C  0.5032843  0.4146338  0.4910197    0.00000       Uiso       1.00
       H27          H  0.5980840  0.4994522  0.4005075    0.00000       Uiso       1.00
       H28          H  0.5763528  0.4812240  0.4277884    0.00000       Uiso       1.00
       H29          H  0.4958239  0.5762540  0.4873179    0.00000       Uiso       1.00
       H30          H  0.5175990  0.5944678  0.4601777    0.00000       Uiso       1.00
       H31          H  0.4958583  0.4277889  0.5187758    0.00000       Uiso       1.00
       H32          H  0.5014079  0.4005081  0.5005475    0.00000       Uiso       1.00
       C90          C  0.8748323  0.6251120  0.8749999    0.00000       Uiso       1.00
       C91          C  0.7389676  0.7300155  0.8347080    0.00000       Uiso       1.00
       C92          C  0.7620426  0.7174536  0.8195873    0.00000       Uiso       1.00
       C93          C  0.7696276  0.7180187  0.7965584    0.00000       Uiso       1.00
       C94          C  0.7543014  0.7307598  0.7887608    0.00000       Uiso       1.00
       C95          C  0.7311841  0.7431209  0.8039237    0.00000       Uiso       1.00
       C96          C  0.7236043  0.7426827  0.8269421    0.00000       Uiso       1.00
       C97          C  0.7990220  0.6454339  0.0431777    0.00000       Uiso       1.00
       C98          C  0.8036398  0.6559332  0.0511388    0.00000       Uiso       1.00
       C99          C  0.7841396  0.6372803  0.0586114    0.00000       Uiso       1.00
      C100          C  0.7737640  0.6398482  0.0817316    0.00000       Uiso       1.00
      C101          C  0.7781808  0.6505905  0.0896928    0.00000       Uiso       1.00
      C102          C  0.7931848  0.6586120  0.0742643    0.00000       Uiso       1.00
      C103          C  0.9875554  0.6806070  0.7827081    0.00000       Uiso       1.00
      C104          C  0.0106318  0.6654975  0.7701328    0.00000       Uiso       1.00
      C105          C  0.9799600  0.7036365  0.7821637    0.00000       Uiso       1.00
      C106          C  0.9952770  0.7114454  0.7694295    0.00000       Uiso       1.00
      C107          C  0.0183957  0.6962935  0.7570549    0.00000       Uiso       1.00
      C108          C  0.0259859  0.6732747  0.7574726    0.00000       Uiso       1.00
      C109          C  0.9507080  0.4569531  0.8545274    0.00000       Uiso       1.00
      C110          C  0.9460891  0.4490014  0.8440209    0.00000       Uiso       1.00
      C111          C  0.9656010  0.4415121  0.8626671    0.00000       Uiso       1.00
      C112          C  0.9759858  0.4183942  0.8600786    0.00000       Uiso       1.00
      C113          C  0.9715677  0.4104426  0.8493291    0.00000       Uiso       1.00
      C114          C  0.9565532  0.4258782  0.8413214    0.00000       Uiso       1.00
       F17          F  0.7581610  0.6311560  0.0975102    0.00000       Uiso       1.00
       F18          F  0.9867676  0.7357335  0.7692608    0.00000       Uiso       1.00
       F19          F  0.9514313  0.4180532  0.8301116    0.00000       Uiso       1.00
       F20          F  0.7627999  0.7309502  0.7644728    0.00000       Uiso       1.00
       F21          F  0.7983053  0.6698148  0.0820994    0.00000       Uiso       1.00
       F22          F  0.9915997  0.4026077  0.8687566    0.00000       Uiso       1.00
       F23          F  0.0501418  0.6569595  0.7445207    0.00000       Uiso       1.00
       F24          F  0.6994498  0.7556201  0.8432689    0.00000       Uiso       1.00
       F25          F  0.7792762  0.6259087  0.0506372    0.00000       Uiso       1.00
       F26          F  0.8195792  0.6642448  0.0354481    0.00000       Uiso       1.00
       F27          F  0.9557529  0.7198635  0.7949976    0.00000       Uiso       1.00
       F28          F  0.0191850  0.6412537  0.7698771    0.00000       Uiso       1.00
       F29          F  0.9301391  0.4646995  0.8357233    0.00000       Uiso       1.00
       F30          F  0.9704658  0.4494761  0.8740459    0.00000       Uiso       1.00
       F31          F  0.7938331  0.7051992  0.7803199    0.00000       Uiso       1.00
       F32          F  0.7304252  0.7302495  0.8589520    0.00000       Uiso       1.00
      C115          C  0.7919000  0.6991880  0.8524753    0.00000       Uiso       1.00
      C116          C  0.8105845  0.6782996  0.8428115    0.00000       Uiso       1.00
      C117          C  0.8134850  0.6701595  0.8256153    0.00000       Uiso       1.00
      C118          C  0.7977040  0.6828550  0.8182606    0.00000       Uiso       1.00
      C119          C  0.7787723  0.7038403  0.8277804    0.00000       Uiso       1.00
      C120          C  0.7761824  0.7117080  0.8450263    0.00000       Uiso       1.00
       H33          H  0.7621372  0.7277892  0.8524531    0.00000       Uiso       1.00
       H34          H  0.8000741  0.6761718  0.8052844    0.00000       Uiso       1.00
      C121          C  0.8316126  0.6361001  0.9714213    0.00000       Uiso       1.00
      C122          C  0.8434885  0.6338840  0.9804465    0.00000       Uiso       1.00
      C123          C  0.8091754  0.6413347  0.9857094    0.00000       Uiso       1.00
      C124          C  0.7987418  0.6444024  0.0088426    0.00000       Uiso       1.00
      C125          C  0.8103238  0.6423361  0.0182586    0.00000       Uiso       1.00
      C126          C  0.8328485  0.6370638  0.0036106    0.00000       Uiso       1.00
       H35          H  0.8423178  0.6350185  0.0102321    0.00000       Uiso       1.00
       H36          H  0.7814516  0.6487117  0.0194429    0.00000       Uiso       1.00
      C127          C  0.9390414  0.6573479  0.8218413    0.00000       Uiso       1.00
      C128          C  0.9577211  0.6477029  0.8009441    0.00000       Uiso       1.00
      C129          C  0.9361371  0.6745366  0.8299968    0.00000       Uiso       1.00
      C130          C  0.9519091  0.6819028  0.8173079    0.00000       Uiso       1.00
      C131          C  0.9708357  0.6724017  0.7963141    0.00000       Uiso       1.00
      C132          C  0.9734296  0.6551631  0.7884309    0.00000       Uiso       1.00
       H37          H  0.9874707  0.6477508  0.7723430    0.00000       Uiso       1.00
       H38          H  0.9495364  0.6948729  0.8240027    0.00000       Uiso       1.00
      C133          C  0.9180899  0.5287004  0.8639256    0.00000       Uiso       1.00
      C134          C  0.9062191  0.5196732  0.8661335    0.00000       Uiso       1.00
      C135          C  0.9405312  0.5144170  0.8586783    0.00000       Uiso       1.00
      C136          C  0.9509733  0.4912873  0.8555896    0.00000       Uiso       1.00
      C137          C  0.9393964  0.4818694  0.8576474    0.00000       Uiso       1.00
      C138          C  0.9168675  0.4965128  0.8629326    0.00000       Uiso       1.00
       H39          H  0.9074023  0.4898894  0.8649719    0.00000       Uiso       1.00
       H40          H  0.9682663  0.4806908  0.8512709    0.00000       Uiso       1.00
      C139          C  0.7894210  0.7071978  0.8693817    0.00000       Uiso       1.00
      C140          C  0.8051049  0.6947302  0.8766297    0.00000       Uiso       1.00
      C141          C  0.8322572  0.6493879  0.8160541    0.00000       Uiso       1.00
      C142          C  0.8478622  0.6368965  0.8233945    0.00000       Uiso       1.00
      C143          C  0.9173700  0.6840792  0.8507770    0.00000       Uiso       1.00
      C144          C  0.9017740  0.6767276  0.8632618    0.00000       Uiso       1.00
      C145          C  0.9520950  0.5236341  0.8566748    0.00000       Uiso       1.00
      C146          C  0.9416390  0.5465734  0.8597918    0.00000       Uiso       1.00
      C147          C  0.8837765  0.5340884  0.8716719    0.00000       Uiso       1.00
      C148          C  0.8733108  0.5570139  0.8748912    0.00000       Uiso       1.00
       H41          H  0.8742391  0.5276204  0.8735486    0.00000       Uiso       1.00
       H42          H  0.8560174  0.5675676  0.8791217    0.00000       Uiso       1.00
       H43          H  0.9693142  0.5130632  0.8526949    0.00000       Uiso       1.00
       H44          H  0.9511069  0.5530399  0.8580836    0.00000       Uiso       1.00
       H45          H  0.8620842  0.6209698  0.8156343    0.00000       Uiso       1.00
       H46          H  0.8349178  0.6427531  0.8028132    0.00000       Uiso       1.00
       H47          H  0.8026036  0.7014563  0.8896943    0.00000       Uiso       1.00
       H48          H  0.7752967  0.7231957  0.8770433    0.00000       Uiso       1.00
       H49          H  0.8875558  0.6844736  0.8791955    0.00000       Uiso       1.00
       H50          H  0.9147066  0.6973140  0.8574237    0.00000       Uiso       1.00
      C149          C  0.8394244  0.6610099  0.8747096    0.00000       Uiso       1.00
      C150          C  0.8576516  0.6393394  0.8662629    0.00000       Uiso       1.00
      C151          C  0.8606824  0.6321124  0.8482379    0.00000       Uiso       1.00
      C152          C  0.8451235  0.6447370  0.8405980    0.00000       Uiso       1.00
      C153          C  0.8264287  0.6655549  0.8503121    0.00000       Uiso       1.00
      C154          C  0.8236779  0.6737993  0.8673009    0.00000       Uiso       1.00
       H51          H  0.8373109  0.6678660  0.8873731    0.00000       Uiso       1.00
       H52          H  0.8752053  0.6165004  0.8401029    0.00000       Uiso       1.00
      C155          C  0.8631498  0.6280458  0.9009135    0.00000       Uiso       1.00
      C156          C  0.8750480  0.6245899  0.9106978    0.00000       Uiso       1.00
      C157          C  0.8409271  0.6322368  0.9158997    0.00000       Uiso       1.00
      C158          C  0.8303599  0.6351537  0.9390950    0.00000       Uiso       1.00
      C159          C  0.8422055  0.6330182  0.9480800    0.00000       Uiso       1.00
      C160          C  0.8646890  0.6275299  0.9338498    0.00000       Uiso       1.00
       H53          H  0.8924549  0.6198512  0.9001535    0.00000       Uiso       1.00
       H54          H  0.8316964  0.6333354  0.9095082    0.00000       Uiso       1.00
      C161          C  0.8920024  0.6338616  0.8607804    0.00000       Uiso       1.00
      C162          C  0.9102236  0.6254345  0.8391023    0.00000       Uiso       1.00
      C163          C  0.8889669  0.6518801  0.8680236    0.00000       Uiso       1.00
      C164          C  0.9045168  0.6595313  0.8554059    0.00000       Uiso       1.00
      C165          C  0.9232064  0.6498359  0.8345792    0.00000       Uiso       1.00
      C166          C  0.9259613  0.6328546  0.8263196    0.00000       Uiso       1.00
       H55          H  0.9123397  0.6127772  0.8322349    0.00000       Uiso       1.00
       H56          H  0.8744476  0.6600011  0.8836429    0.00000       Uiso       1.00
      C167          C  0.8865249  0.5992011  0.8720429    0.00000       Uiso       1.00
      C168          C  0.8746325  0.5894138  0.8754899    0.00000       Uiso       1.00
      C169          C  0.9087524  0.5842186  0.8678386    0.00000       Uiso       1.00
      C170          C  0.9193286  0.5610259  0.8649010    0.00000       Uiso       1.00
      C171          C  0.9074880  0.5520390  0.8670284    0.00000       Uiso       1.00
      C172          C  0.8850006  0.5662644  0.8725293    0.00000       Uiso       1.00
       H57          H  0.8572232  0.5999538  0.8802380    0.00000       Uiso       1.00
       H58          H  0.9179797  0.5906110  0.8667458    0.00000       Uiso       1.00
      C173          C  0.8763840  0.6251596  0.9430982    0.00000       Uiso       1.00
      C174          C  0.8659272  0.6283584  0.9660265    0.00000       Uiso       1.00
      C175          C  0.8080534  0.6402502  0.9535519    0.00000       Uiso       1.00
      C176          C  0.7976065  0.6433465  0.9764941    0.00000       Uiso       1.00
      C177          C  0.9445289  0.6235446  0.8053803    0.00000       Uiso       1.00
      C178          C  0.9602037  0.6308036  0.7929192    0.00000       Uiso       1.00
       H59          H  0.8754684  0.6264759  0.9724928    0.00000       Uiso       1.00
       H60          H  0.8936747  0.6209384  0.9325406    0.00000       Uiso       1.00
       H61          H  0.7985820  0.6419643  0.9470869    0.00000       Uiso       1.00
       H62          H  0.7803903  0.6473172  0.9870684    0.00000       Uiso       1.00
       H63          H  0.9470329  0.6104861  0.7986425    0.00000       Uiso       1.00
       H64          H  0.9743245  0.6231565  0.7769144    0.00000       Uiso       1.00
      C179          C  0.7501677  0.8749999  0.3748882    0.00000       Uiso       1.00
      C180          C  0.6452215  0.0511385  0.3440665    0.00000       Uiso       1.00
      C181          C  0.6578004  0.0431774  0.3545659    0.00000       Uiso       1.00
      C182          C  0.6572492  0.0586111  0.3627194    0.00000       Uiso       1.00
      C183          C  0.6445046  0.0817313  0.3601516    0.00000       Uiso       1.00
      C184          C  0.6321264  0.0896926  0.3494092    0.00000       Uiso       1.00
      C185          C  0.6325510  0.0742640  0.3413877    0.00000       Uiso       1.00
      C186          C  0.7297363  0.7827078  0.3193932    0.00000       Uiso       1.00
      C187          C  0.7192355  0.7701325  0.3345027    0.00000       Uiso       1.00
      C188          C  0.7378762  0.7821634  0.2963637    0.00000       Uiso       1.00
      C189          C  0.7352934  0.7694292  0.2885548    0.00000       Uiso       1.00
      C190          C  0.7245494  0.7570546  0.3037066    0.00000       Uiso       1.00
      C191          C  0.7165416  0.7574722  0.3267255    0.00000       Uiso       1.00
      C192          C  0.6947646  0.8545272  0.5430469    0.00000       Uiso       1.00
      C193          C  0.7098899  0.8440208  0.5509987    0.00000       Uiso       1.00
      C194          C  0.6717319  0.8626670  0.5584879    0.00000       Uiso       1.00
      C195          C  0.6639356  0.8600785  0.5816058    0.00000       Uiso       1.00
      C196          C  0.6791033  0.8493289  0.5895575    0.00000       Uiso       1.00
      C197          C  0.7021254  0.8413213  0.5741218    0.00000       Uiso       1.00
      C198          C  0.9183695  0.8195874  0.2825469    0.00000       Uiso       1.00
      C199          C  0.9263238  0.8347082  0.2699851    0.00000       Uiso       1.00
      C200          C  0.9338136  0.7965584  0.2819819    0.00000       Uiso       1.00
      C201          C  0.9569373  0.7887610  0.2692408    0.00000       Uiso       1.00
      C202          C  0.9648917  0.8039238  0.2568797    0.00000       Uiso       1.00
      C203          C  0.9494529  0.8269423  0.2573179    0.00000       Uiso       1.00
       F33          F  0.7439715  0.7692605  0.2642667    0.00000       Uiso       1.00
       F34          F  0.6396437  0.8687565  0.5973922    0.00000       Uiso       1.00
       F35          F  0.9572806  0.8432691  0.2443805    0.00000       Uiso       1.00
       F36          F  0.6443289  0.0975100  0.3688437    0.00000       Uiso       1.00
       F37          F  0.7053376  0.7445202  0.3430406    0.00000       Uiso       1.00
       F38          F  0.9727268  0.7644729  0.2690503    0.00000       Uiso       1.00
       F39          F  0.7184571  0.8301115  0.5819468    0.00000       Uiso       1.00
       F40          F  0.6195955  0.0820991  0.3301849    0.00000       Uiso       1.00
       F41          F  0.7492492  0.7949974  0.2801367    0.00000       Uiso       1.00
       F42          F  0.7109380  0.7698767  0.3587464    0.00000       Uiso       1.00
       F43          F  0.6554883  0.8740457  0.5505239    0.00000       Uiso       1.00
       F44          F  0.7341376  0.8357233  0.5353006    0.00000       Uiso       1.00
       F45          F  0.9106224  0.8589522  0.2697510    0.00000       Uiso       1.00
       F46          F  0.9258466  0.7803199  0.2948013    0.00000       Uiso       1.00
       F47          F  0.6700867  0.0506369  0.3740911    0.00000       Uiso       1.00
       F48          F  0.6449728  0.0354478  0.3357549    0.00000       Uiso       1.00
      C204          C  0.6760647  0.9804466  0.3661162    0.00000       Uiso       1.00
      C205          C  0.6969658  0.9714214  0.3639001    0.00000       Uiso       1.00
      C206          C  0.7051149  0.9857094  0.3586654    0.00000       Uiso       1.00
      C207          C  0.6924157  0.0088423  0.3555973    0.00000       Uiso       1.00
      C208          C  0.6714176  0.0182583  0.3576636    0.00000       Uiso       1.00
      C209          C  0.6635410  0.0036102  0.3629360    0.00000       Uiso       1.00
       H65          H  0.6474501  0.0102318  0.3649813    0.00000       Uiso       1.00
       H66          H  0.6991056  0.0194426  0.3512880    0.00000       Uiso       1.00
      C210          C  0.7391172  0.8218411  0.3426523    0.00000       Uiso       1.00
      C211          C  0.7413344  0.8009441  0.3522974    0.00000       Uiso       1.00
      C212          C  0.7338661  0.8299966  0.3254634    0.00000       Uiso       1.00
      C213          C  0.7307829  0.8173077  0.3180973    0.00000       Uiso       1.00
      C214          C  0.7328502  0.7963138  0.3275985    0.00000       Uiso       1.00
      C215          C  0.7381392  0.7884308  0.3448372    0.00000       Uiso       1.00
       H67          H  0.7401857  0.7723429  0.3522497    0.00000       Uiso       1.00
       H68          H  0.7264611  0.8240023  0.3051271    0.00000       Uiso       1.00
      C216          C  0.7179843  0.8639256  0.4712998    0.00000       Uiso       1.00
      C217          C  0.7276471  0.8661337  0.4803270    0.00000       Uiso       1.00
      C218          C  0.7007907  0.8586779  0.4855831    0.00000       Uiso       1.00
      C219          C  0.6934373  0.8555892  0.5087128    0.00000       Uiso       1.00
      C220          C  0.7029562  0.8576473  0.5181307    0.00000       Uiso       1.00
      C221          C  0.7201995  0.8629329  0.5034874    0.00000       Uiso       1.00
       H69          H  0.7276253  0.8649725  0.5101108    0.00000       Uiso       1.00
       H70          H  0.6804632  0.8512702  0.5193092    0.00000       Uiso       1.00
      C222          C  0.8466036  0.8428115  0.3217008    0.00000       Uiso       1.00
      C223          C  0.8556243  0.8524754  0.3008125    0.00000       Uiso       1.00
      C224          C  0.8608993  0.8256153  0.3298409    0.00000       Uiso       1.00
      C225          C  0.8840351  0.8182606  0.3171454    0.00000       Uiso       1.00
      C226          C  0.8934467  0.8277805  0.2961602    0.00000       Uiso       1.00
      C227          C  0.8787910  0.8450264  0.2882925    0.00000       Uiso       1.00
       H71          H  0.8854091  0.8524533  0.2722114    0.00000       Uiso       1.00
       H72          H  0.8946412  0.8052843  0.3238285    0.00000       Uiso       1.00
      C228          C  0.6680461  0.9660265  0.3716418    0.00000       Uiso       1.00
      C229          C  0.6805176  0.9430981  0.3748406    0.00000       Uiso       1.00
      C230          C  0.7258992  0.9764941  0.3566537    0.00000       Uiso       1.00
      C231          C  0.7383942  0.9535521  0.3597501    0.00000       Uiso       1.00
      C232          C  0.6912304  0.8566741  0.4763660    0.00000       Uiso       1.00
      C233          C  0.6985695  0.8597910  0.4534267    0.00000       Uiso       1.00
      C234          C  0.8516883  0.8160540  0.3506124    0.00000       Uiso       1.00
      C235          C  0.8287429  0.8233944  0.3631038    0.00000       Uiso       1.00
      C236          C  0.8411967  0.8693820  0.2928027    0.00000       Uiso       1.00
      C237          C  0.8182651  0.8766299  0.3052703    0.00000       Uiso       1.00
       H73          H  0.8476595  0.8770437  0.2768049    0.00000       Uiso       1.00
       H74          H  0.8077017  0.8896948  0.2985442    0.00000       Uiso       1.00
       H75          H  0.8622686  0.8028131  0.3572472    0.00000       Uiso       1.00
       H76          H  0.8222814  0.8156340  0.3790304    0.00000       Uiso       1.00
       H77          H  0.7543307  0.9470870  0.3580360    0.00000       Uiso       1.00
       H78          H  0.7325411  0.9870685  0.3526830    0.00000       Uiso       1.00
       H79          H  0.6737845  0.9325406  0.3790618    0.00000       Uiso       1.00
       H80          H  0.6520386  0.9724928  0.3735244    0.00000       Uiso       1.00
       H81          H  0.6908100  0.8580827  0.4469601    0.00000       Uiso       1.00
       H82          H  0.6779914  0.8526939  0.4869367    0.00000       Uiso       1.00
      C238          C  0.7142541  0.9106977  0.3754102    0.00000       Uiso       1.00
      C239          C  0.7359365  0.9009135  0.3719544    0.00000       Uiso       1.00
      C240          C  0.7431730  0.9158998  0.3677635    0.00000       Uiso       1.00
      C241          C  0.7305448  0.9390950  0.3648465    0.00000       Uiso       1.00
      C242          C  0.7097142  0.9480800  0.3669820    0.00000       Uiso       1.00
      C243          C  0.7014610  0.9338498  0.3724703    0.00000       Uiso       1.00
       H83          H  0.7073914  0.9001535  0.3801489    0.00000       Uiso       1.00
       H84          H  0.7587951  0.9095082  0.3666650    0.00000       Uiso       1.00
      C244          C  0.7472170  0.8607803  0.3661386    0.00000       Uiso       1.00
      C245          C  0.7506739  0.8391023  0.3745658    0.00000       Uiso       1.00
      C246          C  0.7430094  0.8680235  0.3481200    0.00000       Uiso       1.00
      C247          C  0.7400774  0.8554057  0.3404688    0.00000       Uiso       1.00
      C248          C  0.7422142  0.8345791  0.3501643    0.00000       Uiso       1.00
      C249          C  0.7477189  0.8263195  0.3671457    0.00000       Uiso       1.00
       H85          H  0.7554252  0.8322349  0.3872232    0.00000       Uiso       1.00
       H86          H  0.7419096  0.8836427  0.3399990    0.00000       Uiso       1.00
      C250          C  0.7414321  0.8720429  0.4007991    0.00000       Uiso       1.00
      C251          C  0.7498772  0.8754901  0.4105865    0.00000       Uiso       1.00
      C252          C  0.7234091  0.8678383  0.4157816    0.00000       Uiso       1.00
      C253          C  0.7157705  0.8649006  0.4389742    0.00000       Uiso       1.00
      C254          C  0.7254836  0.8670284  0.4479612    0.00000       Uiso       1.00
      C255          C  0.7424698  0.8725295  0.4337359    0.00000       Uiso       1.00
       H87          H  0.7625384  0.8802384  0.4000466    0.00000       Uiso       1.00
       H88          H  0.7152746  0.8667455  0.4093891    0.00000       Uiso       1.00
      C256          C  0.7760851  0.8662630  0.3606609    0.00000       Uiso       1.00
      C257          C  0.7858655  0.8747097  0.3389904    0.00000       Uiso       1.00
      C258          C  0.7910795  0.8482379  0.3678879    0.00000       Uiso       1.00
      C259          C  0.8142782  0.8405980  0.3552634    0.00000       Uiso       1.00
      C260          C  0.8232588  0.8503122  0.3344455    0.00000       Uiso       1.00
      C261          C  0.8090208  0.8673011  0.3262012    0.00000       Uiso       1.00
       H89          H  0.7753157  0.8873733  0.3321343    0.00000       Uiso       1.00
       H90          H  0.7846916  0.8401029  0.3834999    0.00000       Uiso       1.00
      C262          C  0.7500903  0.8053803  0.3764558    0.00000       Uiso       1.00
      C263          C  0.7468767  0.7929191  0.3691968    0.00000       Uiso       1.00
      C264          C  0.7349645  0.8632615  0.3232723    0.00000       Uiso       1.00
      C265          C  0.7318532  0.8507767  0.3159207    0.00000       Uiso       1.00
      C266          C  0.7517974  0.8748918  0.4429864    0.00000       Uiso       1.00
      C267          C  0.7445509  0.8716725  0.4659119    0.00000       Uiso       1.00
       H91          H  0.7487605  0.7769145  0.3768441    0.00000       Uiso       1.00
       H92          H  0.7543241  0.7986425  0.3895144    0.00000       Uiso       1.00
       H93          H  0.7332490  0.8791952  0.3155263    0.00000       Uiso       1.00
       H94          H  0.7278701  0.8574234  0.3026858    0.00000       Uiso       1.00
       H95          H  0.7648601  0.8791226  0.4324327    0.00000       Uiso       1.00
       H96          H  0.7522116  0.8735495  0.4723799    0.00000       Uiso       1.00
      C268          C  0.3749442  0.3748880  0.1249996    0.00000       Uiso       1.00
      C269          C  0.3036914  0.2699846  0.1652912    0.00000       Uiso       1.00
      C270          C  0.2990839  0.2825464  0.1804119    0.00000       Uiso       1.00
      C271          C  0.2842049  0.2819814  0.2034409    0.00000       Uiso       1.00
      C272          C  0.2738224  0.2692402  0.2112384    0.00000       Uiso       1.00
      C273          C  0.2782290  0.2568792  0.1960755    0.00000       Uiso       1.00
      C274          C  0.2932296  0.2573174  0.1730570    0.00000       Uiso       1.00
      C275          C  0.4876340  0.3545662  0.9568219    0.00000       Uiso       1.00
      C276          C  0.5107122  0.3440669  0.9488609    0.00000       Uiso       1.00
      C277          C  0.4800318  0.3627197  0.9413882    0.00000       Uiso       1.00
      C278          C  0.4953441  0.3601519  0.9182680    0.00000       Uiso       1.00
      C279          C  0.5184647  0.3494095  0.9103068    0.00000       Uiso       1.00
      C280          C  0.5260616  0.3413880  0.9257354    0.00000       Uiso       1.00
      C281          C  0.4508706  0.3193931  0.2172917    0.00000       Uiso       1.00
      C282          C  0.4462620  0.3345025  0.2298671    0.00000       Uiso       1.00
      C283          C  0.4657601  0.2963636  0.2178362    0.00000       Uiso       1.00
      C284          C  0.4761519  0.2885547  0.2305704    0.00000       Uiso       1.00
      C285          C  0.4717440  0.3037065  0.2429450    0.00000       Uiso       1.00
      C286          C  0.4567330  0.3267254  0.2425274    0.00000       Uiso       1.00
      C287          C  0.2621886  0.5430470  0.1454722    0.00000       Uiso       1.00
      C288          C  0.2391115  0.5509987  0.1559786    0.00000       Uiso       1.00
      C289          C  0.2697803  0.5584879  0.1373325    0.00000       Uiso       1.00
      C290          C  0.2544588  0.5816059  0.1399209    0.00000       Uiso       1.00
      C291          C  0.2313394  0.5895575  0.1506704    0.00000       Uiso       1.00
      C292          C  0.2237530  0.5741218  0.1586780    0.00000       Uiso       1.00
       F49          F  0.4868278  0.3688440  0.9024894    0.00000       Uiso       1.00
       F50          F  0.4917619  0.2642665  0.2307391    0.00000       Uiso       1.00
       F51          F  0.1995962  0.5819468  0.1698878    0.00000       Uiso       1.00
       F52          F  0.2582233  0.2690498  0.2355263    0.00000       Uiso       1.00
       F53          F  0.5502199  0.3301852  0.9179004    0.00000       Uiso       1.00
       F54          F  0.2629642  0.5973923  0.1312429    0.00000       Uiso       1.00
       F55          F  0.4516218  0.3430406  0.2554793    0.00000       Uiso       1.00
       F56          F  0.2983392  0.2443800  0.1567303    0.00000       Uiso       1.00
       F57          F  0.4558226  0.3740913  0.9493624    0.00000       Uiso       1.00
       F58          F  0.5192726  0.3357553  0.9645516    0.00000       Uiso       1.00
       F59          F  0.4706142  0.2801365  0.2050022    0.00000       Uiso       1.00
       F60          F  0.4303157  0.3587463  0.2301228    0.00000       Uiso       1.00
       F61          F  0.2305619  0.5353006  0.1642761    0.00000       Uiso       1.00
       F62          F  0.2939879  0.5505239  0.1259537    0.00000       Uiso       1.00
       F63          F  0.2793524  0.2948009  0.2196794    0.00000       Uiso       1.00
       F64          F  0.3196269  0.2697505  0.1410473    0.00000       Uiso       1.00
      C293          C  0.3435634  0.3008121  0.1475241    0.00000       Uiso       1.00
      C294          C  0.3316959  0.3217005  0.1571879    0.00000       Uiso       1.00
      C295          C  0.3092600  0.3298406  0.1743840    0.00000       Uiso       1.00
      C296          C  0.2988198  0.3171451  0.1817387    0.00000       Uiso       1.00
      C297          C  0.3103933  0.2961598  0.1722189    0.00000       Uiso       1.00
      C298          C  0.3329169  0.2882920  0.1549731    0.00000       Uiso       1.00
       H97          H  0.3423798  0.2722108  0.1475463    0.00000       Uiso       1.00
       H98          H  0.2815306  0.3238282  0.1947149    0.00000       Uiso       1.00
      C299          C  0.4391341  0.3639000  0.0285783    0.00000       Uiso       1.00
      C300          C  0.4578190  0.3661160  0.0195531    0.00000       Uiso       1.00
      C301          C  0.4362196  0.3586653  0.0142902    0.00000       Uiso       1.00
      C302          C  0.4519874  0.3555976  0.9911569    0.00000       Uiso       1.00
      C303          C  0.4709191  0.3576639  0.9817411    0.00000       Uiso       1.00
      C304          C  0.4735234  0.3629363  0.9963891    0.00000       Uiso       1.00
       H99          H  0.4875688  0.3649815  0.9897676    0.00000       Uiso       1.00
      H100          H  0.4496068  0.3512883  0.9805566    0.00000       Uiso       1.00
      C305          C  0.4182307  0.3426522  0.1781585    0.00000       Uiso       1.00
      C306          C  0.4063682  0.3522971  0.1990556    0.00000       Uiso       1.00
      C307          C  0.4406707  0.3254634  0.1700029    0.00000       Uiso       1.00
      C308          C  0.4511199  0.3180973  0.1826919    0.00000       Uiso       1.00
      C309          C  0.4395514  0.3275983  0.2036857    0.00000       Uiso       1.00
      C310          C  0.4170237  0.3448370  0.2115690    0.00000       Uiso       1.00
      H101          H  0.4075646  0.3522493  0.2276568    0.00000       Uiso       1.00
      H102          H  0.4684120  0.3051272  0.1759971    0.00000       Uiso       1.00
      C311          C  0.3107160  0.4712996  0.1360739    0.00000       Uiso       1.00
      C312          C  0.2920260  0.4803268  0.1338660    0.00000       Uiso       1.00
      C313          C  0.3136265  0.4855831  0.1413213    0.00000       Uiso       1.00
      C314          C  0.2978502  0.5087128  0.1444100    0.00000       Uiso       1.00
      C315          C  0.2789132  0.5181306  0.1423522    0.00000       Uiso       1.00
      C316          C  0.2763131  0.5034872  0.1370669    0.00000       Uiso       1.00
      H103          H  0.2622638  0.5101106  0.1350275    0.00000       Uiso       1.00
      H104          H  0.3002280  0.5193093  0.1487288    0.00000       Uiso       1.00
      C317          C  0.3660009  0.2928022  0.1306177    0.00000       Uiso       1.00
      C318          C  0.3764648  0.3052699  0.1233698    0.00000       Uiso       1.00
      C319          C  0.2976995  0.3506122  0.1839453    0.00000       Uiso       1.00
      C320          C  0.3081535  0.3631035  0.1766049    0.00000       Uiso       1.00
      C321          C  0.4522263  0.3159209  0.1492227    0.00000       Uiso       1.00
      C322          C  0.4417634  0.3232725  0.1367379    0.00000       Uiso       1.00
      C323          C  0.3324040  0.4763660  0.1433248    0.00000       Uiso       1.00
      C324          C  0.3480043  0.4534267  0.1402079    0.00000       Uiso       1.00
      C325          C  0.2895370  0.4659117  0.1283276    0.00000       Uiso       1.00
      C326          C  0.3052160  0.4429862  0.1251083    0.00000       Uiso       1.00
      H105          H  0.2754081  0.4723796  0.1264509    0.00000       Uiso       1.00
      H106          H  0.3027069  0.4324324  0.1208778    0.00000       Uiso       1.00
      H107          H  0.3350723  0.4869368  0.1473048    0.00000       Uiso       1.00
      H108          H  0.3622304  0.4469601  0.1419161    0.00000       Uiso       1.00
      H109          H  0.2986884  0.3790302  0.1843652    0.00000       Uiso       1.00
      H110          H  0.2804844  0.3572470  0.1971861    0.00000       Uiso       1.00
      H111          H  0.3937543  0.2985437  0.1103052    0.00000       Uiso       1.00
      H112          H  0.3755359  0.2768043  0.1229561    0.00000       Uiso       1.00
      H113          H  0.4512249  0.3155265  0.1208043    0.00000       Uiso       1.00
      H114          H  0.4694443  0.3026860  0.1425761    0.00000       Uiso       1.00
      C327          C  0.3751441  0.3389902  0.1252899    0.00000       Uiso       1.00
      C328          C  0.3632541  0.3606606  0.1337366    0.00000       Uiso       1.00
      C329          C  0.3410328  0.3678876  0.1517616    0.00000       Uiso       1.00
      C330          C  0.3304587  0.3552631  0.1594015    0.00000       Uiso       1.00
      C331          C  0.3422959  0.3344452  0.1496873    0.00000       Uiso       1.00
      C332          C  0.3647781  0.3262008  0.1326986    0.00000       Uiso       1.00
      H115          H  0.3925501  0.3321341  0.1126264    0.00000       Uiso       1.00
      H116          H  0.3318087  0.3834996  0.1598966    0.00000       Uiso       1.00
      C333          C  0.3921092  0.3719542  0.0990861    0.00000       Uiso       1.00
      C334          C  0.4103357  0.3754101  0.0893019    0.00000       Uiso       1.00
      C335          C  0.3890637  0.3677632  0.0840998    0.00000       Uiso       1.00
      C336          C  0.4046087  0.3648463  0.0609046    0.00000       Uiso       1.00
      C337          C  0.4233038  0.3669819  0.0519196    0.00000       Uiso       1.00
      C338          C  0.4260687  0.3724701  0.0661499    0.00000       Uiso       1.00
      H117          H  0.4124597  0.3801489  0.0998461    0.00000       Uiso       1.00
      H118          H  0.3745401  0.3666647  0.0904913    0.00000       Uiso       1.00
      C339          C  0.3866445  0.3661384  0.1392192    0.00000       Uiso       1.00
      C340          C  0.3747604  0.3745656  0.1608973    0.00000       Uiso       1.00
      C341          C  0.4088708  0.3481199  0.1319761    0.00000       Uiso       1.00
      C342          C  0.4194539  0.3404688  0.1445938    0.00000       Uiso       1.00
      C343          C  0.4076217  0.3501642  0.1654204    0.00000       Uiso       1.00
      C344          C  0.3851354  0.3671455  0.1736800    0.00000       Uiso       1.00
      H119          H  0.3573518  0.3872229  0.1677647    0.00000       Uiso       1.00
      H120          H  0.4180915  0.3399990  0.1163568    0.00000       Uiso       1.00
      C345          C  0.3577688  0.4007990  0.1279567    0.00000       Uiso       1.00
      C346          C  0.3395363  0.4105863  0.1245096    0.00000       Uiso       1.00
      C347          C  0.3608095  0.4157815  0.1321610    0.00000       Uiso       1.00
      C348          C  0.3452555  0.4389741  0.1350986    0.00000       Uiso       1.00
      C349          C  0.3265554  0.4479610  0.1329712    0.00000       Uiso       1.00
      C350          C  0.3237943  0.4337356  0.1274703    0.00000       Uiso       1.00
      H121          H  0.3374149  0.4000463  0.1197615    0.00000       Uiso       1.00
      H122          H  0.3753365  0.4093890  0.1332538    0.00000       Uiso       1.00
      C351          C  0.4446417  0.3748405  0.0569015    0.00000       Uiso       1.00
      C352          C  0.4603119  0.3716417  0.0339732    0.00000       Uiso       1.00
      C353          C  0.4018558  0.3597498  0.0464475    0.00000       Uiso       1.00
      C354          C  0.4174471  0.3566535  0.0235055    0.00000       Uiso       1.00
      C355          C  0.3734539  0.3764554  0.1946194    0.00000       Uiso       1.00
      C356          C  0.3839267  0.3691964  0.2070806    0.00000       Uiso       1.00
      H123          H  0.4744370  0.3735242  0.0275070    0.00000       Uiso       1.00
      H124          H  0.4471536  0.3790617  0.0674591    0.00000       Uiso       1.00
      H125          H  0.3876333  0.3580358  0.0529126    0.00000       Uiso       1.00
      H126          H  0.4147759  0.3526829  0.0129311    0.00000       Uiso       1.00
      H127          H  0.3561615  0.3895140  0.2013572    0.00000       Uiso       1.00
      H128          H  0.3743954  0.3768435  0.2230853    0.00000       Uiso       1.00
      C357          C  0.0000559  0.1250002  0.6251121    0.00000       Uiso       1.00
      C358          C  0.0404264  0.9488615  0.6559337    0.00000       Uiso       1.00
      C359          C  0.0555435  0.9568227  0.6454344    0.00000       Uiso       1.00
      C360          C  0.0785794  0.9413890  0.6372809    0.00000       Uiso       1.00
      C361          C  0.0863873  0.9182687  0.6398488    0.00000       Uiso       1.00
      C362          C  0.0712279  0.9103075  0.6505911    0.00000       Uiso       1.00
      C363          C  0.0482025  0.9257360  0.6586125    0.00000       Uiso       1.00
      C364          C  0.8318375  0.2172922  0.6806068    0.00000       Uiso       1.00
      C365          C  0.8238707  0.2298676  0.6654974    0.00000       Uiso       1.00
      C366          C  0.8164035  0.2178366  0.7036363    0.00000       Uiso       1.00
      C367          C  0.7932776  0.2305708  0.7114452    0.00000       Uiso       1.00
      C368          C  0.7853109  0.2429455  0.6962934    0.00000       Uiso       1.00
      C369          C  0.8007395  0.2425278  0.6732745    0.00000       Uiso       1.00
      C370          C  0.0923387  0.1454728  0.4569535    0.00000       Uiso       1.00
      C371          C  0.1049094  0.1559793  0.4490018    0.00000       Uiso       1.00
      C372          C  0.0928867  0.1373331  0.4415125    0.00000       Uiso       1.00
      C373          C  0.1056197  0.1399216  0.4183946    0.00000       Uiso       1.00
      C374          C  0.1179896  0.1506711  0.4104430    0.00000       Uiso       1.00
      C375          C  0.1175683  0.1586787  0.4258787    0.00000       Uiso       1.00
      C376          C  0.0205039  0.1804126  0.7174538    0.00000       Uiso       1.00
      C377          C  0.0310171  0.1652919  0.7300156    0.00000       Uiso       1.00
      C378          C  0.0123538  0.2034416  0.7180188    0.00000       Uiso       1.00
      C379          C  0.0149389  0.2112392  0.7307599    0.00000       Uiso       1.00
      C380          C  0.0256952  0.1960762  0.7431210    0.00000       Uiso       1.00
      C381          C  0.0337131  0.1730577  0.7426828    0.00000       Uiso       1.00
       F65          F  0.7774988  0.2307396  0.7357333    0.00000       Uiso       1.00
       F66          F  0.1057923  0.1312436  0.4026082    0.00000       Uiso       1.00
       F67          F  0.0449302  0.1567310  0.7556202    0.00000       Uiso       1.00
       F68          F  0.1106823  0.9024900  0.6311567    0.00000       Uiso       1.00
       F69          F  0.7928987  0.2554798  0.6569594    0.00000       Uiso       1.00
       F70          F  0.0062500  0.2355271  0.7309504    0.00000       Uiso       1.00
       F71          F  0.1305153  0.1698885  0.4180537    0.00000       Uiso       1.00
       F72          F  0.0318793  0.9179010  0.6698153    0.00000       Uiso       1.00
       F73          F  0.8243834  0.2050027  0.7198634    0.00000       Uiso       1.00
       F74          F  0.8395612  0.2301233  0.6412537    0.00000       Uiso       1.00
       F75          F  0.0800578  0.1259543  0.4494765    0.00000       Uiso       1.00
       F76          F  0.1051614  0.1642768  0.4646999    0.00000       Uiso       1.00
       F77          F  0.0393255  0.1410479  0.7302496    0.00000       Uiso       1.00
       F78          F  0.0009678  0.2196802  0.7051993    0.00000       Uiso       1.00
       F79          F  0.0948144  0.9493632  0.6259093    0.00000       Uiso       1.00
       F80          F  0.0161754  0.9645522  0.6642452    0.00000       Uiso       1.00
      C382          C  0.0226276  0.0195535  0.6338841    0.00000       Uiso       1.00
      C383          C  0.0322874  0.0285787  0.6361002    0.00000       Uiso       1.00
      C384          C  0.0494899  0.0142906  0.6413349    0.00000       Uiso       1.00
      C385          C  0.0568550  0.9911578  0.6444030    0.00000       Uiso       1.00
      C386          C  0.0473393  0.9817417  0.6423367    0.00000       Uiso       1.00
      C387          C  0.0300869  0.9963898  0.6370643    0.00000       Uiso       1.00
      H129          H  0.0226631  0.9897683  0.6350189    0.00000       Uiso       1.00
      H130          H  0.0698359  0.9805574  0.6487125    0.00000       Uiso       1.00
      C388          C  0.9036106  0.1781590  0.6573479    0.00000       Uiso       1.00
      C389          C  0.8945760  0.1990560  0.6477028    0.00000       Uiso       1.00
      C390          C  0.8893262  0.1700035  0.6745368    0.00000       Uiso       1.00
      C391          C  0.8661880  0.1826924  0.6819028    0.00000       Uiso       1.00
      C392          C  0.8567626  0.2036862  0.6724017    0.00000       Uiso       1.00
      C393          C  0.8714072  0.2115694  0.6551629    0.00000       Uiso       1.00
      H131          H  0.8647784  0.2276571  0.6477504    0.00000       Uiso       1.00
      H132          H  0.8555906  0.1759977  0.6948730    0.00000       Uiso       1.00
      C394          C  0.0532097  0.1360745  0.5287006    0.00000       Uiso       1.00
      C395          C  0.0741077  0.1338663  0.5196735    0.00000       Uiso       1.00
      C396          C  0.0450517  0.1413221  0.5144172    0.00000       Uiso       1.00
      C397          C  0.0577393  0.1444108  0.4912876    0.00000       Uiso       1.00
      C398          C  0.0787341  0.1423528  0.4818698    0.00000       Uiso       1.00
      C399          C  0.0866197  0.1370672  0.4965131    0.00000       Uiso       1.00
      H133          H  0.1027085  0.1350276  0.4898897    0.00000       Uiso       1.00
      H134          H  0.0510426  0.1487298  0.4806911    0.00000       Uiso       1.00
      C400          C  0.0111159  0.1571885  0.6782997    0.00000       Uiso       1.00
      C401          C  0.0089123  0.1475246  0.6991880    0.00000       Uiso       1.00
      C402          C  0.0163555  0.1743847  0.6701597    0.00000       Uiso       1.00
      C403          C  0.0194410  0.1817395  0.6828552    0.00000       Uiso       1.00
      C404          C  0.0173875  0.1722195  0.7038404    0.00000       Uiso       1.00
      C405          C  0.0121099  0.1549737  0.7117081    0.00000       Uiso       1.00
      H135          H  0.0100738  0.1475468  0.7277892    0.00000       Uiso       1.00
      H136          H  0.0237540  0.1947158  0.6761721    0.00000       Uiso       1.00
      C406          C  0.0057146  0.0339736  0.6283584    0.00000       Uiso       1.00
      C407          C  0.9984564  0.0569019  0.6251597    0.00000       Uiso       1.00
      C408          C  0.0590471  0.0235059  0.6433468    0.00000       Uiso       1.00
      C409          C  0.0516964  0.0464480  0.6402504    0.00000       Uiso       1.00
      C410          C  0.0242706  0.1433259  0.5236344    0.00000       Uiso       1.00
      C411          C  0.0117872  0.1402090  0.5465736    0.00000       Uiso       1.00
      C412          C  0.0183547  0.1839461  0.6493881    0.00000       Uiso       1.00
      C413          C  0.0152411  0.1766056  0.6368967    0.00000       Uiso       1.00
      C414          C  0.0033814  0.1306180  0.7071978    0.00000       Uiso       1.00
      C415          C  0.0001654  0.1233701  0.6947302    0.00000       Uiso       1.00
      H137          H  0.0015082  0.1229564  0.7231956    0.00000       Uiso       1.00
      H138          H  0.9959406  0.1103053  0.7014562    0.00000       Uiso       1.00
      H139          H  0.0223289  0.1971870  0.6427534    0.00000       Uiso       1.00
      H140          H  0.0169458  0.1843660  0.6209701    0.00000       Uiso       1.00
      H141          H  0.0594538  0.0529130  0.6419644    0.00000       Uiso       1.00
      H142          H  0.0722927  0.0129315  0.6473175    0.00000       Uiso       1.00
      H143          H  0.9853870  0.0674595  0.6209384    0.00000       Uiso       1.00
      H144          H  0.9980559  0.0275073  0.6264758    0.00000       Uiso       1.00
      H145          H  0.9958527  0.1419174  0.5530402    0.00000       Uiso       1.00
      H146          H  0.0176222  0.1473062  0.5130635    0.00000       Uiso       1.00
      C416          C  0.0003621  0.0893024  0.6245901    0.00000       Uiso       1.00
      C417          C  0.0088044  0.0990866  0.6280460    0.00000       Uiso       1.00
      C418          C  0.0268362  0.0841003  0.6322369    0.00000       Uiso       1.00
      C419          C  0.0344865  0.0609051  0.6351539    0.00000       Uiso       1.00
      C420          C  0.0247763  0.0519200  0.6330183    0.00000       Uiso       1.00
      C421          C  0.0077811  0.0661503  0.6275300    0.00000       Uiso       1.00
      H147          H  0.9876937  0.0998466  0.6198514    0.00000       Uiso       1.00
      H148          H  0.0349684  0.0904918  0.6333354    0.00000       Uiso       1.00
      C422          C  0.9741359  0.1392198  0.6338618    0.00000       Uiso       1.00
      C423          C  0.9643419  0.1608978  0.6254345    0.00000       Uiso       1.00
      C424          C  0.9591528  0.1319766  0.6518803    0.00000       Uiso       1.00
      C425          C  0.9359519  0.1445944  0.6595315    0.00000       Uiso       1.00
      C426          C  0.9269576  0.1654209  0.6498359    0.00000       Uiso       1.00
      C427          C  0.9411842  0.1736805  0.6328546    0.00000       Uiso       1.00
      H149          H  0.9748831  0.1677652  0.6127772    0.00000       Uiso       1.00
      H150          H  0.9655513  0.1163574  0.6600013    0.00000       Uiso       1.00
      C428          C  0.0142741  0.1279572  0.5992013    0.00000       Uiso       1.00
      C429          C  0.0359538  0.1245099  0.5894139    0.00000       Uiso       1.00
      C430          C  0.0070290  0.1321617  0.5842187    0.00000       Uiso       1.00
      C431          C  0.0196454  0.1350994  0.5610261    0.00000       Uiso       1.00
      C432          C  0.0404730  0.1329718  0.5520393    0.00000       Uiso       1.00
      C433          C  0.0487351  0.1274706  0.5662646    0.00000       Uiso       1.00
      H151          H  0.0428234  0.1197617  0.5999539    0.00000       Uiso       1.00
      H152          H  0.9914092  0.1332546  0.5906111    0.00000       Uiso       1.00
      C434          C  0.0030090  0.1337371  0.6393395    0.00000       Uiso       1.00
      C435          C  0.9995657  0.1252904  0.6610099    0.00000       Uiso       1.00
      C436          C  0.0072053  0.1517622  0.6321125    0.00000       Uiso       1.00
      C437          C  0.0101395  0.1594021  0.6447371    0.00000       Uiso       1.00
      C438          C  0.0080165  0.1496879  0.6655549    0.00000       Uiso       1.00
      C439          C  0.0025232  0.1326990  0.6737993    0.00000       Uiso       1.00
      H153          H  0.9948233  0.1126268  0.6678660    0.00000       Uiso       1.00
      H154          H  0.0082944  0.1598971  0.6165006    0.00000       Uiso       1.00
      C440          C  0.9319264  0.1946198  0.6235445    0.00000       Uiso       1.00
      C441          C  0.9089925  0.2070810  0.6308035    0.00000       Uiso       1.00
      C442          C  0.9214984  0.1367385  0.6767278    0.00000       Uiso       1.00
      C443          C  0.8985507  0.1492234  0.6840795    0.00000       Uiso       1.00
      C444          C  0.0696756  0.1251083  0.5570140    0.00000       Uiso       1.00
      C445          C  0.0821353  0.1283275  0.5340886    0.00000       Uiso       1.00
      H155          H  0.9025190  0.2230856  0.6231561    0.00000       Uiso       1.00
      H156          H  0.9424809  0.2013576  0.6104859    0.00000       Uiso       1.00
      H157          H  0.9279705  0.1208049  0.6844739    0.00000       Uiso       1.00
      H158          H  0.8879793  0.1425767  0.6973144    0.00000       Uiso       1.00
      H159          H  0.0764153  0.1208775  0.5675678    0.00000       Uiso       1.00
      H160          H  0.0981409  0.1264506  0.5276206    0.00000       Uiso       1.00
      C446          C  0.2499997  0.0000006  0.9995529    0.00000       Uiso       1.00
      C447          C  0.4261419  0.9288220  0.8637356    0.00000       Uiso       1.00
      C448          C  0.4181924  0.9241995  0.8868050    0.00000       Uiso       1.00
      C449          C  0.4336400  0.9093134  0.8943903    0.00000       Uiso       1.00
      C450          C  0.4567625  0.8989389  0.8790699    0.00000       Uiso       1.00
      C451          C  0.4647122  0.9033607  0.8559580    0.00000       Uiso       1.00
      C452          C  0.4492698  0.9183682  0.8483782    0.00000       Uiso       1.00
      C453          C  0.1576076  0.1127488  0.9237521    0.00000       Uiso       1.00
      C454          C  0.1450354  0.1358183  0.9283746    0.00000       Uiso       1.00
      C455          C  0.1570459  0.1051636  0.9088661    0.00000       Uiso       1.00
      C456          C  0.1442979  0.1204841  0.8984916    0.00000       Uiso       1.00
      C457          C  0.1319265  0.1435959  0.9029133    0.00000       Uiso       1.00
      C458          C  0.1323613  0.1511758  0.9179208    0.00000       Uiso       1.00
      C459          C  0.2296431  0.0758010  0.1123019    0.00000       Uiso       1.00
      C460          C  0.2191459  0.0711785  0.1353713    0.00000       Uiso       1.00
      C461          C  0.2377900  0.0906870  0.1047167    0.00000       Uiso       1.00
      C462          C  0.2352175  0.1010616  0.1200372    0.00000       Uiso       1.00
      C463          C  0.2244771  0.0966398  0.1431490    0.00000       Uiso       1.00
      C464          C  0.2164624  0.0816323  0.1507288    0.00000       Uiso       1.00
      C465          C  0.1945547  0.8872516  0.0753544    0.00000       Uiso       1.00
      C466          C  0.2096744  0.8641822  0.0707319    0.00000       Uiso       1.00
      C467          C  0.1715217  0.8948369  0.0902404    0.00000       Uiso       1.00
      C468          C  0.1637197  0.8795164  0.1006149    0.00000       Uiso       1.00
      C469          C  0.1788819  0.8564045  0.0961931    0.00000       Uiso       1.00
      C470          C  0.2019041  0.8488247  0.0811856    0.00000       Uiso       1.00
       F81          F  0.1441112  0.1119855  0.8828847    0.00000       Uiso       1.00
       F82          F  0.2439027  0.1166684  0.1115387    0.00000       Uiso       1.00
       F83          F  0.2182301  0.8246760  0.0760602    0.00000       Uiso       1.00
       F84          F  0.4725560  0.8833321  0.8875684    0.00000       Uiso       1.00
       F85          F  0.1194131  0.1753245  0.9230463    0.00000       Uiso       1.00
       F86          F  0.1394277  0.8880149  0.1162216    0.00000       Uiso       1.00
       F87          F  0.2052619  0.0765068  0.1748775    0.00000       Uiso       1.00
       F88          F  0.4570925  0.9234937  0.8242294    0.00000       Uiso       1.00
       F89          F  0.1698762  0.0809638  0.9039977    0.00000       Uiso       1.00
       F90          F  0.1447975  0.1443606  0.9443177    0.00000       Uiso       1.00
       F91          F  0.2491594  0.0955555  0.0805170    0.00000       Uiso       1.00
       F92          F  0.2108414  0.0552354  0.1439136    0.00000       Uiso       1.00
       F93          F  0.2339220  0.8556399  0.0547888    0.00000       Uiso       1.00
       F94          F  0.1552839  0.9190366  0.0951088    0.00000       Uiso       1.00
       F95          F  0.4256782  0.9044450  0.9185900    0.00000       Uiso       1.00
       F96          F  0.4104367  0.9447651  0.8551933    0.00000       Uiso       1.00
      C471          C  0.3554524  0.9686605  0.9166541    0.00000       Uiso       1.00
      C472          C  0.3464306  0.9567856  0.9353294    0.00000       Uiso       1.00
      C473          C  0.3607239  0.9343508  0.9382261    0.00000       Uiso       1.00
      C474          C  0.3838583  0.9239190  0.9224508    0.00000       Uiso       1.00
      C475          C  0.3932710  0.9355000  0.9035286    0.00000       Uiso       1.00
      C476          C  0.3786175  0.9580224  0.9009421    0.00000       Uiso       1.00
      H161          H  0.3852367  0.9674907  0.8869042    0.00000       Uiso       1.00
      H162          H  0.3944625  0.9066306  0.9248179    0.00000       Uiso       1.00
      C477          C  0.1967833  0.0642243  0.9563383    0.00000       Uiso       1.00
      C478          C  0.1758866  0.0828997  0.9682131    0.00000       Uiso       1.00
      C479          C  0.2049247  0.0613276  0.9339034    0.00000       Uiso       1.00
      C480          C  0.1922221  0.0771029  0.9234716    0.00000       Uiso       1.00
      C481          C  0.1712284  0.0960252  0.9350526    0.00000       Uiso       1.00
      C482          C  0.1633595  0.0986117  0.9575750    0.00000       Uiso       1.00
      H163          H  0.1472721  0.1126496  0.9670432    0.00000       Uiso       1.00
      H164          H  0.1989063  0.0747358  0.9061832    0.00000       Uiso       1.00
      C483          C  0.2389918  0.0432149  0.0637775    0.00000       Uiso       1.00
      C484          C  0.2412134  0.0313400  0.0824527    0.00000       Uiso       1.00
      C485          C  0.2337469  0.0656498  0.0608809    0.00000       Uiso       1.00
      C486          C  0.2306742  0.0760816  0.0766561    0.00000       Uiso       1.00
      C487          C  0.2327459  0.0645004  0.0955783    0.00000       Uiso       1.00
      C488          C  0.2380285  0.0419781  0.0981647    0.00000       Uiso       1.00
      H165          H  0.2400782  0.0325097  0.1122025    0.00000       Uiso       1.00
      H166          H  0.2263570  0.0933700  0.0742891    0.00000       Uiso       1.00
      C489          C  0.2177920  0.9357761  0.0427683    0.00000       Uiso       1.00
      C490          C  0.2274455  0.9171007  0.0308935    0.00000       Uiso       1.00
      C491          C  0.2006018  0.9386729  0.0652031    0.00000       Uiso       1.00
      C492          C  0.1932427  0.9228976  0.0756349    0.00000       Uiso       1.00
      C493          C  0.2027524  0.9039752  0.0640539    0.00000       Uiso       1.00
      C494          C  0.2199923  0.9013887  0.0415316    0.00000       Uiso       1.00
      H167          H  0.2274111  0.8873509  0.0320633    0.00000       Uiso       1.00
      H168          H  0.1802714  0.9252647  0.0929232    0.00000       Uiso       1.00
      C495          C  0.3410272  0.9910966  0.9141788    0.00000       Uiso       1.00
      C496          C  0.3180971  0.0015525  0.9298568    0.00000       Uiso       1.00
      C497          C  0.3515121  0.9227827  0.9569890    0.00000       Uiso       1.00
      C498          C  0.3285681  0.9332284  0.9725884    0.00000       Uiso       1.00
      C499          C  0.2317297  0.0772179  0.0421180    0.00000       Uiso       1.00
      C500          C  0.2348308  0.0667722  0.0265186    0.00000       Uiso       1.00
      C501          C  0.1910506  0.9574360  0.0767711    0.00000       Uiso       1.00
      C502          C  0.1983953  0.9730353  0.0663255    0.00000       Uiso       1.00
      C503          C  0.2443461  0.9146253  0.0084574    0.00000       Uiso       1.00
      C504          C  0.2515986  0.9303039  0.9980012    0.00000       Uiso       1.00
      H169          H  0.2520002  0.9005083  0.9989162    0.00000       Uiso       1.00
      H170          H  0.2646585  0.9278055  0.9807125    0.00000       Uiso       1.00
      H171          H  0.1778145  0.9600936  0.0939856    0.00000       Uiso       1.00
      H172          H  0.1906428  0.9872502  0.0757961    0.00000       Uiso       1.00
      H173          H  0.3221058  0.9237576  0.9868032    0.00000       Uiso       1.00
      H174          H  0.3620906  0.9055682  0.9596467    0.00000       Uiso       1.00
      H175          H  0.3075356  0.0188412  0.9273586    0.00000       Uiso       1.00
      H176          H  0.3474910  0.0006374  0.9000614    0.00000       Uiso       1.00
      H177          H  0.2331123  0.0762430  0.0123039    0.00000       Uiso       1.00
      H178          H  0.2277512  0.0944325  0.0394605    0.00000       Uiso       1.00
      C505          C  0.2856978  0.0002162  0.9641614    0.00000       Uiso       1.00
      C506          C  0.2759158  0.9883192  0.9823788    0.00000       Uiso       1.00
      C507          C  0.2909083  0.9660983  0.9854064    0.00000       Uiso       1.00
      C508          C  0.3141056  0.9555326  0.9698532    0.00000       Uiso       1.00
      C509          C  0.3230872  0.9673771  0.9511678    0.00000       Uiso       1.00
      C510          C  0.3088518  0.9898582  0.9484205    0.00000       Uiso       1.00
      H179          H  0.2751500  0.0176210  0.9620509    0.00000       Uiso       1.00
      H180          H  0.2845199  0.9568682  0.9999222    0.00000       Uiso       1.00
      C511          C  0.2357646  0.0171748  0.9878718    0.00000       Uiso       1.00
      C512          C  0.2140859  0.0353922  0.9997685    0.00000       Uiso       1.00
      C513          C  0.2429930  0.0141473  0.9656510    0.00000       Uiso       1.00
      C514          C  0.2303614  0.0297004  0.9550852    0.00000       Uiso       1.00
      C515          C  0.2095351  0.0483859  0.9669298    0.00000       Uiso       1.00
      C516          C  0.2012896  0.0511332  0.9894108    0.00000       Uiso       1.00
      H181          H  0.2072284  0.0375023  0.0171741    0.00000       Uiso       1.00
      H182          H  0.2586114  0.9996311  0.9564209    0.00000       Uiso       1.00
      C517          C  0.2470601  0.0116813  0.0167279    0.00000       Uiso       1.00
      C518          C  0.2505215  0.9997842  0.0349453    0.00000       Uiso       1.00
      C519          C  0.2428590  0.0339022  0.0137005    0.00000       Uiso       1.00
      C520          C  0.2399374  0.0444680  0.0292537    0.00000       Uiso       1.00
      C521          C  0.2420784  0.0326233  0.0479391    0.00000       Uiso       1.00
      C522          C  0.2475769  0.0101423  0.0506862    0.00000       Uiso       1.00
      H183          H  0.2552681  0.9823794  0.0370557    0.00000       Uiso       1.00
      H184          H  0.2417568  0.0431328  0.9991840    0.00000       Uiso       1.00
      C523          C  0.2412572  0.9828257  0.0112348    0.00000       Uiso       1.00
      C524          C  0.2496931  0.9646086  0.9993374    0.00000       Uiso       1.00
      C525          C  0.2232372  0.9858532  0.0334556    0.00000       Uiso       1.00
      C526          C  0.2155930  0.9703001  0.0440214    0.00000       Uiso       1.00
      C527          C  0.2252969  0.9516145  0.0321768    0.00000       Uiso       1.00
      C528          C  0.2422797  0.9488672  0.0096959    0.00000       Uiso       1.00
      H185          H  0.2623516  0.9624979  0.9819326    0.00000       Uiso       1.00
      H186          H  0.2151098  0.0003694  0.0426857    0.00000       Uiso       1.00
      C529          C  0.1803498  0.0696965  0.0011055    0.00000       Uiso       1.00
      C530          C  0.1678756  0.0853750  0.9906492    0.00000       Uiso       1.00
      C531          C  0.2382030  0.0269652  0.9327811    0.00000       Uiso       1.00
      C532          C  0.2257047  0.0425646  0.9223354    0.00000       Uiso       1.00
      C533          C  0.2499527  0.9984480  0.0692498    0.00000       Uiso       1.00
      C534          C  0.2467493  0.0089038  0.0849279    0.00000       Uiso       1.00
      H187          H  0.1518711  0.0994920  0.0001904    0.00000       Uiso       1.00
      H188          H  0.1736226  0.0721947  0.0183942    0.00000       Uiso       1.00
      H189          H  0.2541361  0.0127505  0.9233104    0.00000       Uiso       1.00
      H190          H  0.2323406  0.0399070  0.9051209    0.00000       Uiso       1.00
      H191          H  0.2541818  0.9811591  0.0717480    0.00000       Uiso       1.00
      H192          H  0.2486362  0.9993629  0.0990451    0.00000       Uiso       1.00
      C535          C  0.6517218  0.6204591  0.3082201    0.00000       Uiso       1.00
      C536          C  0.6641059  0.6253585  0.2860298    0.00000       Uiso       1.00
      C537          C  0.6664801  0.6187206  0.2684043    0.00000       Uiso       1.00
      C538          C  0.6797642  0.6229388  0.2463408    0.00000       Uiso       1.00
      C539          C  0.6921760  0.6325939  0.2412643    0.00000       Uiso       1.00
      C540          C  0.6898153  0.6389146  0.2591950    0.00000       Uiso       1.00
      C541          C  0.6746281  0.6370894  0.2815167    0.00000       Uiso       1.00
        O1          O  0.6412398  0.6083219  0.3154636    0.00000       Uiso       1.00
      H193          H  0.7008224  0.6440505  0.2558322    0.00000       Uiso       1.00
      C542          C  0.7103235  0.7229979  0.2944374    0.00000       Uiso       1.00
      C543          C  0.7005218  0.7106195  0.2993464    0.00000       Uiso       1.00
      C544          C  0.6853272  0.7082589  0.3212534    0.00000       Uiso       1.00
      C545          C  0.6763800  0.6950843  0.3258823    0.00000       Uiso       1.00
      C546          C  0.6835395  0.6827819  0.3089000    0.00000       Uiso       1.00
      C547          C  0.6991490  0.6850823  0.2869989    0.00000       Uiso       1.00
      C548          C  0.7064312  0.7001586  0.2816469    0.00000       Uiso       1.00
        O2          O  0.7069653  0.7334904  0.3098921    0.00000       Uiso       1.00
      H194          H  0.6803055  0.7168438  0.3347022    0.00000       Uiso       1.00
      H195          H  0.6639968  0.6945298  0.3428516    0.00000       Uiso       1.00
      H196          H  0.7066845  0.6741410  0.2742094    0.00000       Uiso       1.00
      C549          C  0.7549355  0.6645213  0.1471916    0.00000       Uiso       1.00
      C550          C  0.7500651  0.6743065  0.1644489    0.00000       Uiso       1.00
      C551          C  0.7567973  0.6894917  0.1600848    0.00000       Uiso       1.00
      C552          C  0.7525091  0.6984290  0.1775606    0.00000       Uiso       1.00
      C553          C  0.7426890  0.6912692  0.1996845    0.00000       Uiso       1.00
      C554          C  0.7363672  0.6756783  0.2036819    0.00000       Uiso       1.00
      C555          C  0.7382756  0.6684121  0.1866819    0.00000       Uiso       1.00
        O3          O  0.7669774  0.6679921  0.1246193    0.00000       Uiso       1.00
      H197          H  0.7652181  0.6944998  0.1430676    0.00000       Uiso       1.00
      H198          H  0.7571176  0.7107986  0.1735069    0.00000       Uiso       1.00
      H199          H  0.7311093  0.6681218  0.2198623    0.00000       Uiso       1.00
      C556          C  0.7484146  0.6495152  0.1514255    0.00000       Uiso       1.00
      C557          C  0.7358493  0.6440607  0.1732500    0.00000       Uiso       1.00
      C558          C  0.7291225  0.6288399  0.1776774    0.00000       Uiso       1.00
      C559          C  0.7157604  0.6244260  0.1996032    0.00000       Uiso       1.00
      C560          C  0.7075720  0.6361845  0.2175860    0.00000       Uiso       1.00
      C561          C  0.7142563  0.6516654  0.2128093    0.00000       Uiso       1.00
      C562          C  0.7296888  0.6545107  0.1911325    0.00000       Uiso       1.00
        O4          O  0.7550169  0.6416005  0.1321120    0.00000       Uiso       1.00
      H200          H  0.7064030  0.6625313  0.2258104    0.00000       Uiso       1.00
      C563          C  0.7253059  0.7252743  0.2729185    0.00000       Uiso       1.00
      C564          C  0.7307559  0.7160191  0.2549142    0.00000       Uiso       1.00
      C565          C  0.7459683  0.7183766  0.2330177    0.00000       Uiso       1.00
      C566          C  0.7505409  0.7097012  0.2151781    0.00000       Uiso       1.00
      C567          C  0.7389069  0.6997591  0.2186946    0.00000       Uiso       1.00
      C568          C  0.7233562  0.6979006  0.2408419    0.00000       Uiso       1.00
      C569          C  0.7203712  0.7042557  0.2591588    0.00000       Uiso       1.00
        O5          O  0.7333509  0.7379072  0.2714898    0.00000       Uiso       1.00
      H201          H  0.7544173  0.7267986  0.2298679    0.00000       Uiso       1.00
      H202          H  0.7631011  0.7110284  0.1986928    0.00000       Uiso       1.00
      H203          H  0.7125611  0.6926515  0.2438260    0.00000       Uiso       1.00
      C570          C  0.6495002  0.6269799  0.3254649    0.00000       Uiso       1.00
      C571          C  0.6587614  0.6395221  0.3216686    0.00000       Uiso       1.00
      C572          C  0.6564151  0.6461909  0.3392428    0.00000       Uiso       1.00
      C573          C  0.6650934  0.6594515  0.3351606    0.00000       Uiso       1.00
      C574          C  0.6750371  0.6675674  0.3135945    0.00000       Uiso       1.00
      C575          C  0.6768936  0.6609705  0.2961828    0.00000       Uiso       1.00
      C576          C  0.6705252  0.6456495  0.2995462    0.00000       Uiso       1.00
        O6          O  0.6369435  0.6203284  0.3461702    0.00000       Uiso       1.00
      H204          H  0.6479934  0.6408763  0.3560957    0.00000       Uiso       1.00
      H205          H  0.6637648  0.6633624  0.3490554    0.00000       Uiso       1.00
      H206          H  0.6821433  0.6687573  0.2801337    0.00000       Uiso       1.00
        B1          B  0.6319080  0.6084059  0.3395163    0.00000       Uiso       1.00
        B2          B  0.7216322  0.7429591  0.2950983    0.00000       Uiso       1.00
        B3          B  0.7668034  0.6533782  0.1152675    0.00000       Uiso       1.00
      H207          H  0.6579172  0.6104085  0.2716796    0.00000       Uiso       1.00
      H208          H  0.6803511  0.6183223  0.2333915    0.00000       Uiso       1.00
      H209          H  0.7343478  0.6201926  0.1641824    0.00000       Uiso       1.00
      H210          H  0.7117731  0.6119086  0.2022144    0.00000       Uiso       1.00
      C577          C  0.5804014  0.3795410  0.6917795    0.00000       Uiso       1.00
      C578          C  0.5754945  0.3746416  0.7139698    0.00000       Uiso       1.00
      C579          C  0.5536053  0.3812795  0.7315952    0.00000       Uiso       1.00
      C580          C  0.5490443  0.3770613  0.7536587    0.00000       Uiso       1.00
      C581          C  0.5660346  0.3674062  0.7587354    0.00000       Uiso       1.00
      C582          C  0.5879253  0.3610854  0.7408046    0.00000       Uiso       1.00
      C583          C  0.5932346  0.3629106  0.7184829    0.00000       Uiso       1.00
        O7          O  0.5650256  0.3916782  0.6845360    0.00000       Uiso       1.00
      H211          H  0.6007056  0.3559495  0.7441675    0.00000       Uiso       1.00
      C584          C  0.7277591  0.2770021  0.7055625    0.00000       Uiso       1.00
      C585          C  0.7104879  0.2893806  0.7006535    0.00000       Uiso       1.00
      C586          C  0.7148398  0.2917411  0.6787464    0.00000       Uiso       1.00
      C587          C  0.6973469  0.3049157  0.6741174    0.00000       Uiso       1.00
      C588          C  0.6752216  0.3172182  0.6910998    0.00000       Uiso       1.00
      C589          C  0.6712304  0.3149177  0.7130009    0.00000       Uiso       1.00
      C590          C  0.6882370  0.2998414  0.7183530    0.00000       Uiso       1.00
        O8          O  0.7503480  0.2665096  0.6901078    0.00000       Uiso       1.00
      H212          H  0.7318518  0.2831562  0.6652977    0.00000       Uiso       1.00
      H213          H  0.7013785  0.3054702  0.6571481    0.00000       Uiso       1.00
      H214          H  0.6550353  0.3258590  0.7257904    0.00000       Uiso       1.00
      C591          C  0.5666487  0.3354788  0.8528081    0.00000       Uiso       1.00
      C592          C  0.5888210  0.3256936  0.8355508    0.00000       Uiso       1.00
      C593          C  0.6063741  0.3105083  0.8399150    0.00000       Uiso       1.00
      C594          C  0.6284990  0.3015711  0.8224392    0.00000       Uiso       1.00
      C595          C  0.6336429  0.3087309  0.8003153    0.00000       Uiso       1.00
      C596          C  0.6157277  0.3243218  0.7963179    0.00000       Uiso       1.00
      C597          C  0.5933699  0.3315879  0.8133179    0.00000       Uiso       1.00
        O9          O  0.5595893  0.3320079  0.8753804    0.00000       Uiso       1.00
      H215          H  0.6027858  0.3055003  0.8569322    0.00000       Uiso       1.00
      H216          H  0.6414234  0.2892015  0.8264929    0.00000       Uiso       1.00
      H217          H  0.6190937  0.3318783  0.7801374    0.00000       Uiso       1.00
      C598          C  0.5493556  0.3504849  0.8485742    0.00000       Uiso       1.00
      C599          C  0.5531604  0.3559393  0.8267496    0.00000       Uiso       1.00
      C600          C  0.5356403  0.3711601  0.8223221    0.00000       Uiso       1.00
      C601          C  0.5397901  0.3755740  0.8003963    0.00000       Uiso       1.00
      C602          C  0.5613429  0.3638156  0.7824135    0.00000       Uiso       1.00
      C603          C  0.5787314  0.3483346  0.7871904    0.00000       Uiso       1.00
      C604          C  0.5753324  0.3454894  0.8088672    0.00000       Uiso       1.00
       O10          O  0.5287297  0.3583996  0.8678876    0.00000       Uiso       1.00
      H218          H  0.5947450  0.3374688  0.7741893    0.00000       Uiso       1.00
      C605          C  0.7234988  0.2747257  0.7270814    0.00000       Uiso       1.00
      C606          C  0.7016894  0.2839810  0.7450857    0.00000       Uiso       1.00
      C607          C  0.6973628  0.2816235  0.7669822    0.00000       Uiso       1.00
      C608          C  0.6754205  0.2902988  0.7848217    0.00000       Uiso       1.00
      C609          C  0.6573610  0.3002410  0.7813052    0.00000       Uiso       1.00
      C610          C  0.6620989  0.3020995  0.7591579    0.00000       Uiso       1.00
      C611          C  0.6837859  0.2957443  0.7408410    0.00000       Uiso       1.00
       O11          O  0.7427480  0.2620929  0.7285101    0.00000       Uiso       1.00
      H219          H  0.7110841  0.2732015  0.7701320    0.00000       Uiso       1.00
      H220          H  0.6728227  0.2889717  0.8013070    0.00000       Uiso       1.00
      H221          H  0.6490389  0.3073486  0.7561737    0.00000       Uiso       1.00
      C612          C  0.6019453  0.3730201  0.6745347    0.00000       Uiso       1.00
      C613          C  0.6199525  0.3604779  0.6783310    0.00000       Uiso       1.00
      C614          C  0.6418491  0.3538091  0.6607569    0.00000       Uiso       1.00
      C615          C  0.6597056  0.3405486  0.6648391    0.00000       Uiso       1.00
      C616          C  0.6561994  0.3324326  0.6864052    0.00000       Uiso       1.00
      C617          C  0.6340471  0.3390296  0.7038169    0.00000       Uiso       1.00
      C618          C  0.6157212  0.3543506  0.7004535    0.00000       Uiso       1.00
       O12          O  0.6034425  0.3796716  0.6538293    0.00000       Uiso       1.00
      H222          H  0.6449656  0.3591238  0.6439039    0.00000       Uiso       1.00
      H223          H  0.6761829  0.3366376  0.6509442    0.00000       Uiso       1.00
      H224          H  0.6310346  0.3312427  0.7198660    0.00000       Uiso       1.00
        B4          B  0.5798306  0.3915941  0.6604832    0.00000       Uiso       1.00
        B5          B  0.7596900  0.2570409  0.7049016    0.00000       Uiso       1.00
        B6          B  0.5354495  0.3466219  0.8847322    0.00000       Uiso       1.00
      H225          H  0.5400058  0.3895915  0.7283198    0.00000       Uiso       1.00
      H226          H  0.5320653  0.3816778  0.7666081    0.00000       Uiso       1.00
      H227          H  0.5187231  0.3798075  0.8358173    0.00000       Uiso       1.00
      H228          H  0.5258964  0.3880915  0.7977852    0.00000       Uiso       1.00
      C619          C  0.5957465  0.1472403  0.3375277    0.00000       Uiso       1.00
      C620          C  0.5818401  0.1645063  0.3292527    0.00000       Uiso       1.00
      C621          C  0.5752479  0.1601851  0.3182763    0.00000       Uiso       1.00
      C622          C  0.5622073  0.1776718  0.3091897    0.00000       Uiso       1.00
      C623          C  0.5566286  0.1997325  0.3096620    0.00000       Uiso       1.00
      C624          C  0.5636626  0.2037020  0.3205476    0.00000       Uiso       1.00
      C625          C  0.5746976  0.1867254  0.3318502    0.00000       Uiso       1.00
       O13          O  0.6046749  0.1246753  0.3357547    0.00000       Uiso       1.00
      H229          H  0.5801800  0.1431987  0.3169001    0.00000       Uiso       1.00
      H230          H  0.5567474  0.1736916  0.3016752    0.00000       Uiso       1.00
      H231          H  0.5617220  0.2198351  0.3191234    0.00000       Uiso       1.00
      C626          C  0.5374466  0.3082354  0.3820260    0.00000       Uiso       1.00
      C627          C  0.5457315  0.2860578  0.3786504    0.00000       Uiso       1.00
      C628          C  0.5567158  0.2684944  0.3895530    0.00000       Uiso       1.00
      C629          C  0.5658122  0.2463712  0.3850916    0.00000       Uiso       1.00
      C630          C  0.5653419  0.2412642  0.3686051    0.00000       Uiso       1.00
      C631          C  0.5544485  0.2591788  0.3576125    0.00000       Uiso       1.00
      C632          C  0.5431361  0.2815115  0.3635686    0.00000       Uiso       1.00
       O14          O  0.5392163  0.3153918  0.3956698    0.00000       Uiso       1.00
      H232          H  0.5580904  0.2720517  0.4016109    0.00000       Uiso       1.00
      H233          H  0.5733326  0.2334004  0.3945235    0.00000       Uiso       1.00
      H234          H  0.5558743  0.2558145  0.3434177    0.00000       Uiso       1.00
      C633          C  0.4929543  0.2944142  0.2792984    0.00000       Uiso       1.00
      C634          C  0.4963277  0.2993252  0.2931970    0.00000       Uiso       1.00
      C635          C  0.4854154  0.3212072  0.2997909    0.00000       Uiso       1.00
      C636          C  0.4898750  0.3258440  0.3128238    0.00000       Uiso       1.00
      C637          C  0.5063691  0.3088947  0.3183930    0.00000       Uiso       1.00
      C638          C  0.5173714  0.2870136  0.3113571    0.00000       Uiso       1.00
      C639          C  0.5114174  0.2816547  0.3003297    0.00000       Uiso       1.00
       O15          O  0.4793036  0.3098212  0.2703800    0.00000       Uiso       1.00
      H235          H  0.4733512  0.3346348  0.2948664    0.00000       Uiso       1.00
      H236          H  0.4804355  0.3427920  0.3182855    0.00000       Uiso       1.00
      H237          H  0.5315721  0.2742510  0.3132905    0.00000       Uiso       1.00
      C640          C  0.5040435  0.2729613  0.2724469    0.00000       Uiso       1.00
      C641          C  0.5181245  0.2549546  0.2801721    0.00000       Uiso       1.00
      C642          C  0.5290291  0.2330640  0.2736058    0.00000       Uiso       1.00
      C643          C  0.5421613  0.2152112  0.2824170    0.00000       Uiso       1.00
      C644          C  0.5435667  0.2187306  0.2990339    0.00000       Uiso       1.00
      C645          C  0.5322500  0.2408734  0.3056139    0.00000       Uiso       1.00
      C646          C  0.5209568  0.2591829  0.2952359    0.00000       Uiso       1.00
       O16          O  0.4989817  0.2715712  0.2582542    0.00000       Uiso       1.00
      H238          H  0.5273743  0.2299248  0.2615438    0.00000       Uiso       1.00
      H239          H  0.5509804  0.1987095  0.2762320    0.00000       Uiso       1.00
      H240          H  0.5310726  0.2438689  0.3198191    0.00000       Uiso       1.00
      C647          C  0.5270686  0.3254508  0.3709464    0.00000       Uiso       1.00
      C648          C  0.5231285  0.3216562  0.3568734    0.00000       Uiso       1.00
      C649          C  0.5121278  0.3392088  0.3459786    0.00000       Uiso       1.00
      C650          C  0.5073935  0.3351221  0.3328541    0.00000       Uiso       1.00
      C651          C  0.5123194  0.3135832  0.3314468    0.00000       Uiso       1.00
      C652          C  0.5231600  0.2961769  0.3427539    0.00000       Uiso       1.00
      C653          C  0.5301895  0.2995363  0.3540391    0.00000       Uiso       1.00
       O17          O  0.5206186  0.3460901  0.3760087    0.00000       Uiso       1.00
      H241          H  0.5073330  0.3560618  0.3476354    0.00000       Uiso       1.00
      H242          H  0.4996995  0.3489904  0.3240426    0.00000       Uiso       1.00
      H243          H  0.5249798  0.2801540  0.3439299    0.00000       Uiso       1.00
      C654          C  0.6025965  0.1514808  0.3478979    0.00000       Uiso       1.00
      C655          C  0.5948616  0.1732835  0.3518400    0.00000       Uiso       1.00
      C656          C  0.6014264  0.1776246  0.3628327    0.00000       Uiso       1.00
      C657          C  0.5926054  0.1995642  0.3675688    0.00000       Uiso       1.00
      C658          C  0.5759804  0.2175791  0.3626528    0.00000       Uiso       1.00
      C659          C  0.5694021  0.2128393  0.3518200    0.00000       Uiso       1.00
      C660          C  0.5797896  0.1911730  0.3447889    0.00000       Uiso       1.00
       O18          O  0.6167981  0.1322323  0.3543385    0.00000       Uiso       1.00
      H244          H  0.6134946  0.1639137  0.3676198    0.00000       Uiso       1.00
      H245          H  0.5987893  0.2022012  0.3752563    0.00000       Uiso       1.00
      H246          H  0.5551909  0.2258608  0.3500075    0.00000       Uiso       1.00
        B7          B  0.6180051  0.1153078  0.3465160    0.00000       Uiso       1.00
        B8          B  0.5284441  0.3394783  0.3917238    0.00000       Uiso       1.00
        B9          B  0.4832560  0.2951047  0.2570545    0.00000       Uiso       1.00
      C661          C  0.0805151  0.8527597  0.6624710    0.00000       Uiso       1.00
      C662          C  0.0755997  0.8354937  0.6707460    0.00000       Uiso       1.00
      C663          C  0.0537100  0.8398149  0.6817224    0.00000       Uiso       1.00
      C664          C  0.0490696  0.8223283  0.6908089    0.00000       Uiso       1.00
      C665          C  0.0660238  0.8002675  0.6903366    0.00000       Uiso       1.00
      C666          C  0.0879129  0.7962980  0.6794510    0.00000       Uiso       1.00
      C667          C  0.0932739  0.8132747  0.6681485    0.00000       Uiso       1.00
       O19          O  0.0651056  0.8753248  0.6642440    0.00000       Uiso       1.00
      H247          H  0.0402795  0.8568013  0.6830985    0.00000       Uiso       1.00
      H248          H  0.0321149  0.8263085  0.6983233    0.00000       Uiso       1.00
      H249          H  0.1006812  0.7801649  0.6808753    0.00000       Uiso       1.00
      C668          C  0.2277087  0.6917646  0.6179728    0.00000       Uiso       1.00
      C669          C  0.2104403  0.7139423  0.6213484    0.00000       Uiso       1.00
      C670          C  0.2147637  0.7315058  0.6104459    0.00000       Uiso       1.00
      C671          C  0.1972755  0.7536288  0.6149073    0.00000       Uiso       1.00
      C672          C  0.1752119  0.7587358  0.6313937    0.00000       Uiso       1.00
      C673          C  0.1712404  0.7408212  0.6423863    0.00000       Uiso       1.00
      C674          C  0.1882168  0.7184886  0.6364301    0.00000       Uiso       1.00
       O20          O  0.2502784  0.6846083  0.6043291    0.00000       Uiso       1.00
      H250          H  0.2317535  0.7279484  0.5983880    0.00000       Uiso       1.00
      H251          H  0.2012571  0.7665997  0.6054753    0.00000       Uiso       1.00
      H252          H  0.1551071  0.7441856  0.6565811    0.00000       Uiso       1.00
      C675          C  0.0666677  0.7055859  0.7207001    0.00000       Uiso       1.00
      C676          C  0.0888507  0.7006748  0.7068015    0.00000       Uiso       1.00
      C677          C  0.1064143  0.6787928  0.7002077    0.00000       Uiso       1.00
      C678          C  0.1285435  0.6741561  0.6871748    0.00000       Uiso       1.00
      C679          C  0.1336575  0.6911054  0.6816057    0.00000       Uiso       1.00
      C680          C  0.1157429  0.7129864  0.6886415    0.00000       Uiso       1.00
      C681          C  0.0934026  0.7183453  0.6996689    0.00000       Uiso       1.00
       O21          O  0.0595057  0.6901788  0.7296185    0.00000       Uiso       1.00
      H253          H  0.1028531  0.6653653  0.7051321    0.00000       Uiso       1.00
      H254          H  0.1415137  0.6572080  0.6817132    0.00000       Uiso       1.00
      H255          H  0.1191142  0.7257491  0.6867082    0.00000       Uiso       1.00
      C682          C  0.0494526  0.7270387  0.7275516    0.00000       Uiso       1.00
      C683          C  0.0532520  0.7450455  0.7198263    0.00000       Uiso       1.00
      C684          C  0.0356996  0.7669361  0.7263927    0.00000       Uiso       1.00
      C685          C  0.0397902  0.7847888  0.7175815    0.00000       Uiso       1.00
      C686          C  0.0613320  0.7812694  0.7009647    0.00000       Uiso       1.00
      C687          C  0.0787380  0.7591267  0.6943847    0.00000       Uiso       1.00
      C688          C  0.0753764  0.7408171  0.7047626    0.00000       Uiso       1.00
       O22          O  0.0288080  0.7284288  0.7417442    0.00000       Uiso       1.00
      H256          H  0.0188436  0.7700753  0.7384547    0.00000       Uiso       1.00
      H257          H  0.0259227  0.8012906  0.7237665    0.00000       Uiso       1.00
      H258          H  0.0947613  0.7561312  0.6801795    0.00000       Uiso       1.00
      C689          C  0.2234665  0.6745492  0.6290524    0.00000       Uiso       1.00
      C690          C  0.2016587  0.6783439  0.6431254    0.00000       Uiso       1.00
      C691          C  0.1973159  0.6607912  0.6540201    0.00000       Uiso       1.00
      C692          C  0.1753704  0.6648780  0.6671446    0.00000       Uiso       1.00
      C693          C  0.1573501  0.6864168  0.6685519    0.00000       Uiso       1.00
      C694          C  0.1620915  0.7038231  0.6572448    0.00000       Uiso       1.00
      C695          C  0.1837656  0.7004638  0.6459596    0.00000       Uiso       1.00
       O23          O  0.2427181  0.6539099  0.6239901    0.00000       Uiso       1.00
      H259          H  0.2110310  0.6439382  0.6523633    0.00000       Uiso       1.00
      H260          H  0.1727332  0.6510096  0.6759561    0.00000       Uiso       1.00
      H261          H  0.1490644  0.7198460  0.6560688    0.00000       Uiso       1.00
      C696          C  0.1019759  0.8485193  0.6521008    0.00000       Uiso       1.00
      C697          C  0.1199858  0.8267165  0.6481588    0.00000       Uiso       1.00
      C698          C  0.1418843  0.8223754  0.6371661    0.00000       Uiso       1.00
      C699          C  0.1597389  0.8004358  0.6324300    0.00000       Uiso       1.00
      C700          C  0.1562128  0.7824210  0.6373460    0.00000       Uiso       1.00
      C701          C  0.1340621  0.7871607  0.6481787    0.00000       Uiso       1.00
      C702          C  0.1157521  0.8088271  0.6552098    0.00000       Uiso       1.00
       O24          O  0.1033695  0.8677678  0.6456602    0.00000       Uiso       1.00
      H262          H  0.1450286  0.8360863  0.6323791    0.00000       Uiso       1.00
      H263          H  0.1762474  0.7977988  0.6247425    0.00000       Uiso       1.00
      H264          H  0.1310599  0.7741392  0.6499912    0.00000       Uiso       1.00
       B10          B  0.0798295  0.8846923  0.6534827    0.00000       Uiso       1.00
       B11          B  0.2596468  0.6605217  0.6082751    0.00000       Uiso       1.00
       B12          B  0.0354161  0.7048953  0.7429439    0.00000       Uiso       1.00
      C703          C  0.9952413  0.3530169  0.8347844    0.00000       Uiso       1.00
      C704          C  0.0001286  0.3357433  0.8249726    0.00000       Uiso       1.00
      C705          C  0.9934731  0.3400149  0.8097330    0.00000       Uiso       1.00
      C706          C  0.9976793  0.3225224  0.8009479    0.00000       Uiso       1.00
      C707          C  0.0073398  0.3004577  0.8082657    0.00000       Uiso       1.00
      C708          C  0.0136783  0.2964898  0.8238241    0.00000       Uiso       1.00
      C709          C  0.0118655  0.3134922  0.8309639    0.00000       Uiso       1.00
       O25          O  0.9831005  0.3756329  0.8315629    0.00000       Uiso       1.00
      H265          H  0.0188185  0.2803482  0.8314556    0.00000       Uiso       1.00
      C710          C  0.0978400  0.1918826  0.8794655    0.00000       Uiso       1.00
      C711          C  0.0854560  0.2140605  0.8745904    0.00000       Uiso       1.00
      C712          C  0.0831072  0.2316059  0.8813087    0.00000       Uiso       1.00
      C713          C  0.0699268  0.2537256  0.8770082    0.00000       Uiso       1.00
      C714          C  0.0576069  0.2588762  0.8671975    0.00000       Uiso       1.00
      C715          C  0.0598958  0.2409760  0.8608996    0.00000       Uiso       1.00
      C716          C  0.0749772  0.2186198  0.8628123    0.00000       Uiso       1.00
       O26          O  0.1083495  0.1847415  0.8915486    0.00000       Uiso       1.00
      H266          H  0.0917057  0.2280367  0.8897266    0.00000       Uiso       1.00
      H267          H  0.0693817  0.2666557  0.8815982    0.00000       Uiso       1.00
      H268          H  0.0489415  0.2443874  0.8556545    0.00000       Uiso       1.00
      C717          C  0.0392253  0.2058129  0.7769098    0.00000       Uiso       1.00
      C718          C  0.0490282  0.2008903  0.7892848    0.00000       Uiso       1.00
      C719          C  0.0642193  0.1789750  0.7916350    0.00000       Uiso       1.00
      C720          C  0.0731743  0.1743180  0.8048108    0.00000       Uiso       1.00
      C721          C  0.0660267  0.1912882  0.8171197    0.00000       Uiso       1.00
      C722          C  0.0504295  0.2131990  0.8148133    0.00000       Uiso       1.00
      C723          C  0.0431458  0.2185643  0.7997341    0.00000       Uiso       1.00
       O27          O  0.0426829  0.1903101  0.7663758    0.00000       Uiso       1.00
      H269          H  0.0692181  0.1655537  0.7830343    0.00000       Uiso       1.00
      H270          H  0.0855478  0.1573418  0.8053522    0.00000       Uiso       1.00
      H271          H  0.0428818  0.2260062  0.8257400    0.00000       Uiso       1.00
      C724          C  0.0242134  0.2273380  0.7746402    0.00000       Uiso       1.00
      C725          C  0.0187705  0.2453480  0.7839057    0.00000       Uiso       1.00
      C726          C  0.0035437  0.2672936  0.7816241    0.00000       Uiso       1.00
      C727          C  0.9991414  0.2850599  0.7901939    0.00000       Uiso       1.00
      C728          C  0.0109177  0.2814818  0.7999771    0.00000       Uiso       1.00
      C729          C  0.0264043  0.2593187  0.8018669    0.00000       Uiso       1.00
      C730          C  0.0292383  0.2410506  0.7956160    0.00000       Uiso       1.00
       O28          O  0.0162808  0.2286591  0.7619388    0.00000       Uiso       1.00
      H272          H  0.0372831  0.2563004  0.8070062    0.00000       Uiso       1.00
      C731          C  0.1001048  0.1746335  0.8729230    0.00000       Uiso       1.00
      C732          C  0.0908318  0.1784467  0.8603803    0.00000       Uiso       1.00
      C733          C  0.0931775  0.1608865  0.8536903    0.00000       Uiso       1.00
      C734          C  0.0844844  0.1649973  0.8404347    0.00000       Uiso       1.00
      C735          C  0.0745357  0.1865718  0.8323352    0.00000       Uiso       1.00
      C736          C  0.0726892  0.2039711  0.8389374    0.00000       Uiso       1.00
      C737          C  0.0790623  0.2005929  0.8542581    0.00000       Uiso       1.00
       O29          O  0.1127456  0.1539562  0.8795216    0.00000       Uiso       1.00
      H273          H  0.1016042  0.1440169  0.8589759    0.00000       Uiso       1.00
      H274          H  0.0858030  0.1511172  0.8365048    0.00000       Uiso       1.00
      H275          H  0.0674356  0.2200141  0.8311394    0.00000       Uiso       1.00
      C738          C  0.0017796  0.3487100  0.8497961    0.00000       Uiso       1.00
      C739          C  0.0143282  0.3269083  0.8552431    0.00000       Uiso       1.00
      C740          C  0.0210147  0.3225779  0.8704592    0.00000       Uiso       1.00
      C741          C  0.0342813  0.3006410  0.8750375    0.00000       Uiso       1.00
      C742          C  0.0423860  0.2825909  0.8634087    0.00000       Uiso       1.00
      C743          C  0.0357714  0.2873392  0.8478654    0.00000       Uiso       1.00
      C744          C  0.0204437  0.3090270  0.8448784    0.00000       Uiso       1.00
       O30          O  0.9951379  0.3679090  0.8579526    0.00000       Uiso       1.00
      H276          H  0.0157089  0.3363068  0.8788953    0.00000       Uiso       1.00
      H277          H  0.0382058  0.2980524  0.8875954    0.00000       Uiso       1.00
      H278          H  0.0435497  0.2743097  0.8370616    0.00000       Uiso       1.00
       B13          B  0.9832019  0.3848699  0.8462812    0.00000       Uiso       1.00
       B14          B  0.1178158  0.1606123  0.8914069    0.00000       Uiso       1.00
       B15          B  0.0280540  0.2051023  0.7568672    0.00000       Uiso       1.00
      H279          H  0.9851564  0.3568884  0.8044591    0.00000       Uiso       1.00
      H280          H  0.9930493  0.3265578  0.7885948    0.00000       Uiso       1.00
      H281          H  0.9948827  0.2707217  0.7733634    0.00000       Uiso       1.00
      H282          H  0.9866189  0.3015635  0.7888312    0.00000       Uiso       1.00
      C745          C  0.5218124  0.8821977  0.8085764    0.00000       Uiso       1.00
      C746          C  0.5390724  0.8788419  0.7863957    0.00000       Uiso       1.00
      C747          C  0.5347366  0.8897600  0.7688419    0.00000       Uiso       1.00
      C748          C  0.5522169  0.8853180  0.7467149    0.00000       Uiso       1.00
      C749          C  0.5742855  0.8688359  0.7415934    0.00000       Uiso       1.00
      C750          C  0.5782697  0.8578275  0.7594984    0.00000       Uiso       1.00
      C751          C  0.5613005  0.8637640  0.7818363    0.00000       Uiso       1.00
       O31          O  0.4992396  0.8958351  0.8157449    0.00000       Uiso       1.00
      H283          H  0.5177435  0.9018151  0.7724091    0.00000       Uiso       1.00
      H284          H  0.5482258  0.8947616  0.7337523    0.00000       Uiso       1.00
      H285          H  0.5944079  0.8436356  0.7561215    0.00000       Uiso       1.00
      C752          C  0.6828930  0.7794827  0.7946634    0.00000       Uiso       1.00
      C753          C  0.6607062  0.7933769  0.7995866    0.00000       Uiso       1.00
      C754          C  0.6431496  0.7999511  0.8214744    0.00000       Uiso       1.00
      C755          C  0.6210167  0.8129800  0.8261229    0.00000       Uiso       1.00
      C756          C  0.6158925  0.8185645  0.8091787    0.00000       Uiso       1.00
      C757          C  0.6338003  0.8115483  0.7872912    0.00000       Uiso       1.00
      C758          C  0.6561432  0.8005254  0.7819225    0.00000       Uiso       1.00
       O32          O  0.6900656  0.7705505  0.8100628    0.00000       Uiso       1.00
      H286          H  0.6467199  0.7950140  0.8348970    0.00000       Uiso       1.00
      H287          H  0.6080518  0.8184263  0.8430759    0.00000       Uiso       1.00
      H288          H  0.6304224  0.8134932  0.7745303    0.00000       Uiso       1.00
      C759          C  0.6689538  0.8378421  0.6475417    0.00000       Uiso       1.00
      C760          C  0.6738809  0.8295514  0.6648000    0.00000       Uiso       1.00
      C761          C  0.6957738  0.8185788  0.6604689    0.00000       Uiso       1.00
      C762          C  0.7004263  0.8094767  0.6779474    0.00000       Uiso       1.00
      C763          C  0.6834817  0.8099294  0.7000086    0.00000       Uiso       1.00
      C764          C  0.6615896  0.8208112  0.7039879    0.00000       Uiso       1.00
      C765          C  0.6562157  0.8321290  0.6870216    0.00000       Uiso       1.00
       O33          O  0.6843536  0.8360897  0.6249750    0.00000       Uiso       1.00
      H289          H  0.7091975  0.8172176  0.6434813    0.00000       Uiso       1.00
      H290          H  0.7173825  0.8019656  0.6739605    0.00000       Uiso       1.00
      H291          H  0.6488293  0.8193723  0.7201197    0.00000       Uiso       1.00
      C766          C  0.6474902  0.8482087  0.6517918    0.00000       Uiso       1.00
      C767          C  0.6294886  0.8521310  0.6735979    0.00000       Uiso       1.00
      C768          C  0.6075872  0.8631200  0.6779488    0.00000       Uiso       1.00
      C769          C  0.5897403  0.8678366  0.6998926    0.00000       Uiso       1.00
      C770          C  0.5932767  0.8629044  0.7179031    0.00000       Uiso       1.00
      C771          C  0.6154302  0.8520754  0.7131537    0.00000       Uiso       1.00
      C772          C  0.6337336  0.8450637  0.6914809    0.00000       Uiso       1.00
       O34          O  0.6460844  0.8546670  0.6325494    0.00000       Uiso       1.00
      H292          H  0.6044351  0.8679194  0.6642418    0.00000       Uiso       1.00
      H293          H  0.5732296  0.8755220  0.7025362    0.00000       Uiso       1.00
      H294          H  0.6184393  0.8502510  0.7261735    0.00000       Uiso       1.00
      C773          C  0.7001016  0.7726502  0.7732047    0.00000       Uiso       1.00
      C774          C  0.6962909  0.7803913  0.7552047    0.00000       Uiso       1.00
      C775          C  0.7138367  0.7738442  0.7333083    0.00000       Uiso       1.00
      C776          C  0.7097343  0.7826711  0.7154633    0.00000       Uiso       1.00
      C777          C  0.6881867  0.7992848  0.7189972    0.00000       Uiso       1.00
      C778          C  0.6707876  0.8058454  0.7411458    0.00000       Uiso       1.00
      C779          C  0.6741618  0.7954513  0.7594462    0.00000       Uiso       1.00
       O35          O  0.7207519  0.7584586  0.7718021    0.00000       Uiso       1.00
      H295          H  0.7306966  0.7617852  0.7301590    0.00000       Uiso       1.00
      H296          H  0.7235975  0.7765006  0.6989563    0.00000       Uiso       1.00
      H297          H  0.6547593  0.8200479  0.7441538    0.00000       Uiso       1.00
      C780          C  0.5260670  0.8711026  0.8257821    0.00000       Uiso       1.00
      C781          C  0.5478796  0.8570330  0.8219750    0.00000       Uiso       1.00
      C782          C  0.5522354  0.8461222  0.8395177    0.00000       Uiso       1.00
      C783          C  0.5741850  0.8330016  0.8354190    0.00000       Uiso       1.00
      C784          C  0.5921961  0.8316140  0.8138790    0.00000       Uiso       1.00
      C785          C  0.5874417  0.8429368  0.7964830    0.00000       Uiso       1.00
      C786          C  0.5657640  0.8542187  0.7998526    0.00000       Uiso       1.00
       O36          O  0.5068220  0.8761467  0.8464258    0.00000       Uiso       1.00
      H298          H  0.5385281  0.8477628  0.8563723    0.00000       Uiso       1.00
      H299          H  0.5768330  0.8241772  0.8492791    0.00000       Uiso       1.00
      H300          H  0.6004609  0.8441272  0.7804612    0.00000       Uiso       1.00
       B16          B  0.4898835  0.8918676  0.8398279    0.00000       Uiso       1.00
       B17          B  0.7141546  0.7572380  0.7953345    0.00000       Uiso       1.00
       B18          B  0.6696203  0.8468597  0.6156176    0.00000       Uiso       1.00
      C787          C  0.0223345  0.7947884  0.2231131    0.00000       Uiso       1.00
      C788          C  0.0396147  0.7997085  0.2107268    0.00000       Uiso       1.00
      C789          C  0.0353469  0.8215969  0.2083557    0.00000       Uiso       1.00
      C790          C  0.0528452  0.8261718  0.1950696    0.00000       Uiso       1.00
      C791          C  0.0749109  0.8091968  0.1826535    0.00000       Uiso       1.00
      C792          C  0.0788748  0.7873068  0.1850114    0.00000       Uiso       1.00
      C793          C  0.0618683  0.7819831  0.2001994    0.00000       Uiso       1.00
       O37          O  0.9997145  0.8101494  0.2336005    0.00000       Uiso       1.00
      H301          H  0.0950152  0.7745386  0.1740020    0.00000       Uiso       1.00
      C794          C  0.1834946  0.6475289  0.1644659    0.00000       Uiso       1.00
      C795          C  0.1613133  0.6647858  0.1742730    0.00000       Uiso       1.00
      C796          C  0.1437639  0.6604192  0.1894687    0.00000       Uiso       1.00
      C797          C  0.1216403  0.6778982  0.1984217    0.00000       Uiso       1.00
      C798          C  0.1164885  0.7000244  0.1912677    0.00000       Uiso       1.00
      C799          C  0.1343925  0.7040306  0.1756573    0.00000       Uiso       1.00
      C800          C  0.1567546  0.6870373  0.1683682    0.00000       Uiso       1.00
       O38          O  0.1906350  0.6249417  0.1678194    0.00000       Uiso       1.00
      H302          H  0.1473332  0.6434066  0.1944865    0.00000       Uiso       1.00
      H303          H  0.1087078  0.6738553  0.2108052    0.00000       Uiso       1.00
      H304          H  0.1309786  0.7202277  0.1681266    0.00000       Uiso       1.00
      C801          C  0.1695839  0.8086532  0.1198799    0.00000       Uiso       1.00
      C802          C  0.1745053  0.7864809  0.1247459    0.00000       Uiso       1.00
      C803          C  0.1964265  0.7689406  0.1180070    0.00000       Uiso       1.00
      C804          C  0.2010815  0.7468157  0.1222912    0.00000       Uiso       1.00
      C805          C  0.1841026  0.7416599  0.1321146    0.00000       Uiso       1.00
      C806          C  0.1621858  0.7595626  0.1384432    0.00000       Uiso       1.00
      C807          C  0.1568241  0.7819188  0.1365380    0.00000       Uiso       1.00
       O39          O  0.1850930  0.8157248  0.1078364    0.00000       Uiso       1.00
      H305          H  0.2098538  0.7725387  0.1095840    0.00000       Uiso       1.00
      H306          H  0.2180630  0.7339011  0.1176772    0.00000       Uiso       1.00
      H307          H  0.1493704  0.7561885  0.1437045    0.00000       Uiso       1.00
      C808          C  0.1480531  0.8259338  0.1264075    0.00000       Uiso       1.00
      C809          C  0.1300366  0.8221152  0.1389752    0.00000       Uiso       1.00
      C810          C  0.1080852  0.8396226  0.1457088    0.00000       Uiso       1.00
      C811          C  0.0903132  0.8354588  0.1590728    0.00000       Uiso       1.00
      C812          C  0.0938921  0.8139039  0.1672559    0.00000       Uiso       1.00
      C813          C  0.1160613  0.7965283  0.1605648    0.00000       Uiso       1.00
      C814          C  0.1343334  0.7999424  0.1451311    0.00000       Uiso       1.00
       O40          O  0.1467342  0.8465620  0.1198088    0.00000       Uiso       1.00
      H308          H  0.1190822  0.7805126  0.1684133    0.00000       Uiso       1.00
      C815          C  0.2007476  0.6518037  0.1494826    0.00000       Uiso       1.00
      C816          C  0.1969359  0.6736137  0.1440366    0.00000       Uiso       1.00
      C817          C  0.2145001  0.6779550  0.1288231    0.00000       Uiso       1.00
      C818          C  0.2103914  0.6998976  0.1242545    0.00000       Uiso       1.00
      C819          C  0.1888161  0.7179423  0.1358927    0.00000       Uiso       1.00
      C820          C  0.1714130  0.7131895  0.1514443    0.00000       Uiso       1.00
      C821          C  0.1747872  0.6915027  0.1544266    0.00000       Uiso       1.00
       O41          O  0.2214276  0.6325672  0.1414319    0.00000       Uiso       1.00
      H309          H  0.2313711  0.6642451  0.1203703    0.00000       Uiso       1.00
      H310          H  0.2242737  0.7025073  0.1116937    0.00000       Uiso       1.00
      H311          H  0.1553712  0.7262377  0.1622417    0.00000       Uiso       1.00
      C822          C  0.0266377  0.7732453  0.2253318    0.00000       Uiso       1.00
      C823          C  0.0484425  0.7552521  0.2160650    0.00000       Uiso       1.00
      C824          C  0.0527691  0.7333563  0.2184084    0.00000       Uiso       1.00
      C825          C  0.0747098  0.7155135  0.2097243    0.00000       Uiso       1.00
      C826          C  0.0927687  0.7190323  0.1997768    0.00000       Uiso       1.00
      C827          C  0.0880245  0.7411833  0.1979234    0.00000       Uiso       1.00
      C828          C  0.0663311  0.7594966  0.2042985    0.00000       Uiso       1.00
       O42          O  0.0074320  0.7717340  0.2378915    0.00000       Uiso       1.00
      H312          H  0.0390340  0.7302299  0.2268325    0.00000       Uiso       1.00
      H313          H  0.0772946  0.6990368  0.2110510    0.00000       Uiso       1.00
      H314          H  0.1010622  0.7442040  0.1926701    0.00000       Uiso       1.00
       B19          B  0.9904708  0.7953361  0.2429323    0.00000       Uiso       1.00
       B20          B  0.2147685  0.6156171  0.1531482    0.00000       Uiso       1.00
       B21          B  0.1702985  0.8398581  0.1080170    0.00000       Uiso       1.00
      H315          H  0.0184721  0.8351851  0.2169222    0.00000       Uiso       1.00
      H316          H  0.0488132  0.8431492  0.1944848    0.00000       Uiso       1.00
      H317          H  0.1046569  0.8565406  0.1404874    0.00000       Uiso       1.00
      H318          H  0.0738046  0.8493434  0.1630657    0.00000       Uiso       1.00
      C829          C  0.2125871  0.1178023  0.1914224    0.00000       Uiso       1.00
      C830          C  0.2043106  0.1211582  0.2136030    0.00000       Uiso       1.00
      C831          C  0.1933391  0.1102400  0.2311569    0.00000       Uiso       1.00
      C832          C  0.1842506  0.1146820  0.2532839    0.00000       Uiso       1.00
      C833          C  0.1847155  0.1311641  0.2584054    0.00000       Uiso       1.00
      C834          C  0.1955962  0.1421725  0.2405005    0.00000       Uiso       1.00
      C835          C  0.2069014  0.1362360  0.2181626    0.00000       Uiso       1.00
       O43          O  0.2108201  0.1041650  0.1842539    0.00000       Uiso       1.00
      H319          H  0.1919683  0.0981850  0.2275897    0.00000       Uiso       1.00
      H320          H  0.1767403  0.1052385  0.2662465    0.00000       Uiso       1.00
      H321          H  0.1941656  0.1563644  0.2438773    0.00000       Uiso       1.00
      C836          C  0.2570395  0.2205173  0.2053357    0.00000       Uiso       1.00
      C837          C  0.2536702  0.2066232  0.2004125    0.00000       Uiso       1.00
      C838          C  0.2645756  0.2000489  0.1785246    0.00000       Uiso       1.00
      C839          C  0.2601200  0.1870201  0.1738761    0.00000       Uiso       1.00
      C840          C  0.2436361  0.1814355  0.1908203    0.00000       Uiso       1.00
      C841          C  0.2326403  0.1884518  0.2127077    0.00000       Uiso       1.00
      C842          C  0.2385915  0.1994746  0.2180766    0.00000       Uiso       1.00
       O44          O  0.2706793  0.2294495  0.1899364    0.00000       Uiso       1.00
      H322          H  0.2766313  0.2049861  0.1651021    0.00000       Uiso       1.00
      H323          H  0.2695544  0.1815738  0.1569231    0.00000       Uiso       1.00
      H324          H  0.2184464  0.1865069  0.2254687    0.00000       Uiso       1.00
      C843          C  0.1543382  0.1621579  0.3524572    0.00000       Uiso       1.00
      C844          C  0.1682330  0.1704486  0.3351989    0.00000       Uiso       1.00
      C845          C  0.1748221  0.1814213  0.3395300    0.00000       Uiso       1.00
      C846          C  0.1878509  0.1905234  0.3220516    0.00000       Uiso       1.00
      C847          C  0.1934202  0.1900707  0.2999904    0.00000       Uiso       1.00
      C848          C  0.1863892  0.1791889  0.2960111    0.00000       Uiso       1.00
      C849          C  0.1753668  0.1678710  0.3129774    0.00000       Uiso       1.00
       O45          O  0.1454190  0.1639104  0.3750239    0.00000       Uiso       1.00
      H325          H  0.1698970  0.1827824  0.3565177    0.00000       Uiso       1.00
      H326          H  0.1933092  0.1980344  0.3260385    0.00000       Uiso       1.00
      H327          H  0.1883219  0.1806277  0.2798792    0.00000       Uiso       1.00
      C850          C  0.1474913  0.1517914  0.3482071    0.00000       Uiso       1.00
      C851          C  0.1552183  0.1478690  0.3264009    0.00000       Uiso       1.00
      C852          C  0.1486568  0.1368800  0.3220499    0.00000       Uiso       1.00
      C853          C  0.1574701  0.1321634  0.3001062    0.00000       Uiso       1.00
      C854          C  0.1740848  0.1370957  0.2820958    0.00000       Uiso       1.00
      C855          C  0.1806599  0.1479246  0.2868452    0.00000       Uiso       1.00
      C856          C  0.1702789  0.1549363  0.3085179    0.00000       Uiso       1.00
       O46          O  0.1333015  0.1453331  0.3674495    0.00000       Uiso       1.00
      H328          H  0.1365970  0.1320806  0.3357570    0.00000       Uiso       1.00
      H329          H  0.1512885  0.1244780  0.2974625    0.00000       Uiso       1.00
      H330          H  0.1948643  0.1497491  0.2738254    0.00000       Uiso       1.00
      C857          C  0.2459569  0.2273499  0.2267944    0.00000       Uiso       1.00
      C858          C  0.2318874  0.2196087  0.2447944    0.00000       Uiso       1.00
      C859          C  0.2209897  0.2261558  0.2666908    0.00000       Uiso       1.00
      C860          C  0.2078692  0.2173290  0.2845358    0.00000       Uiso       1.00
      C861          C  0.2064692  0.2007153  0.2810017    0.00000       Uiso       1.00
      C862          C  0.2177793  0.1941547  0.2588532    0.00000       Uiso       1.00
      C863          C  0.2290598  0.2045487  0.2405528    0.00000       Uiso       1.00
       O47          O  0.2510129  0.2415414  0.2281971    0.00000       Uiso       1.00
      H331          H  0.2226412  0.2382149  0.2698402    0.00000       Uiso       1.00
      H332          H  0.1990549  0.2234994  0.3010429    0.00000       Uiso       1.00
      H333          H  0.2189616  0.1799521  0.2558452    0.00000       Uiso       1.00
      C864          C  0.2229524  0.1288974  0.1742167    0.00000       Uiso       1.00
      C865          C  0.2268881  0.1429670  0.1780238    0.00000       Uiso       1.00
      C866          C  0.2378759  0.1538778  0.1604811    0.00000       Uiso       1.00
      C867          C  0.2426062  0.1669984  0.1645799    0.00000       Uiso       1.00
      C868          C  0.2376896  0.1683861  0.1861199    0.00000       Uiso       1.00
      C869          C  0.2268619  0.1570633  0.2035159    0.00000       Uiso       1.00
      C870          C  0.2198358  0.1457813  0.2001463    0.00000       Uiso       1.00
       O48          O  0.2293952  0.1238534  0.1535729    0.00000       Uiso       1.00
      H334          H  0.2426637  0.1522372  0.1436265    0.00000       Uiso       1.00
      H335          H  0.2502897  0.1758228  0.1507198    0.00000       Uiso       1.00
      H336          H  0.2250499  0.1558728  0.2195377    0.00000       Uiso       1.00
       B22          B  0.2215797  0.1081324  0.1601708    0.00000       Uiso       1.00
       B23          B  0.2667274  0.2427620  0.2046647    0.00000       Uiso       1.00
       B24          B  0.1320983  0.1531404  0.3843813    0.00000       Uiso       1.00
