data_28
_audit_creation_date              0000-00-00
_audit_creation_method            'LanYouShi'
_symmetry_space_group_name_H-M    'P1'
_cell_length_a                    76.0057983
_cell_length_b                    65.8551025
_cell_length_c                    65.8551025
_cell_angle_alpha                 70.5485992
_cell_angle_beta                  54.7555008
_cell_angle_gamma                 54.7554016
loop_
_atom_site_label
_atom_site_type_symbol
_atom_site_fract_x
_atom_site_fract_y
_atom_site_fract_z
_atom_site_U_iso_or_equiv
_atom_site_adp_type
_atom_site_occupancy
        C1          C  0.5000004  0.4999999  0.4999995    0.00000       Uiso       1.00
        C2          C  0.3031839  0.6516144  0.5796840    0.00000       Uiso       1.00
        C3          C  0.3120816  0.6258397  0.5848170    0.00000       Uiso       1.00
        C4          C  0.2948375  0.6173474  0.6014346    0.00000       Uiso       1.00
        C5          C  0.2690032  0.6344467  0.6130431    0.00000       Uiso       1.00
        C6          C  0.2601058  0.6602684  0.6081344    0.00000       Uiso       1.00
        C7          C  0.2773437  0.6687549  0.5913811    0.00000       Uiso       1.00
        H1          H  0.3160426  0.6586288  0.5666296    0.00000       Uiso       1.00
        H2          H  0.3013898  0.5974690  0.6054093    0.00000       Uiso       1.00
        C8          C  0.6031016  0.5848176  0.3741600    0.00000       Uiso       1.00
        C9          C  0.6171320  0.5796847  0.3483854    0.00000       Uiso       1.00
       C10          C  0.6037278  0.6014354  0.3826523    0.00000       Uiso       1.00
       C11          C  0.6179537  0.6130439  0.3655530    0.00000       Uiso       1.00
       C12          C  0.6317598  0.6081352  0.3397313    0.00000       Uiso       1.00
       C13          C  0.6312751  0.5913818  0.3312449    0.00000       Uiso       1.00
        H3          H  0.6173276  0.5666303  0.3413710    0.00000       Uiso       1.00
        H4          H  0.5932009  0.6054101  0.4025306    0.00000       Uiso       1.00
       C14          C  0.5227388  0.3741601  0.4151818    0.00000       Uiso       1.00
       C15          C  0.5344829  0.3483855  0.4203147    0.00000       Uiso       1.00
       C16          C  0.5136202  0.3826524  0.3985641    0.00000       Uiso       1.00
       C17          C  0.5164936  0.3655531  0.3869555    0.00000       Uiso       1.00
       C18          C  0.5285092  0.3397314  0.3918642    0.00000       Uiso       1.00
       C19          C  0.5374802  0.3312449  0.4086177    0.00000       Uiso       1.00
        H5          H  0.5413015  0.3413711  0.4333692    0.00000       Uiso       1.00
        H6          H  0.5042688  0.4025308  0.3945893    0.00000       Uiso       1.00
       C20          C  0.5620797  0.4151821  0.6258394    0.00000       Uiso       1.00
       C21          C  0.5452026  0.4203151  0.6516140    0.00000       Uiso       1.00
       C22          C  0.5878159  0.3985644  0.6173471    0.00000       Uiso       1.00
       C23          C  0.5965511  0.3869559  0.6344464    0.00000       Uiso       1.00
       C24          C  0.5796269  0.3918646  0.6602681    0.00000       Uiso       1.00
       C25          C  0.5539023  0.4086180  0.6687545    0.00000       Uiso       1.00
        H7          H  0.5253296  0.4333695  0.6586283    0.00000       Uiso       1.00
        H8          H  0.6011421  0.3945897  0.5974687    0.00000       Uiso       1.00
        N1          N  0.6181642  0.6306993  0.3751941    0.00000       Uiso       1.00
        H9          H  0.6290972  0.6374102  0.3608019    0.00000       Uiso       1.00
       H10          H  0.6248555  0.6215671  0.3870290    0.00000       Uiso       1.00
        N2          N  0.5066420  0.3751941  0.3693001    0.00000       Uiso       1.00
       H11          H  0.5101013  0.3608020  0.3625892    0.00000       Uiso       1.00
       H12          H  0.5151148  0.3842204  0.3550798    0.00000       Uiso       1.00
        N3          N  0.6240580  0.3693005  0.6248055    0.00000       Uiso       1.00
       H13          H  0.6273097  0.3625895  0.6391976    0.00000       Uiso       1.00
       H14          H  0.6334520  0.3784327  0.6129705    0.00000       Uiso       1.00
        N4          N  0.2511372  0.6248056  0.6306985    0.00000       Uiso       1.00
       H15          H  0.2334934  0.6391978  0.6374094    0.00000       Uiso       1.00
       H16          H  0.2544160  0.6157793  0.6449187    0.00000       Uiso       1.00
        N5          N  0.2684695  0.6960979  0.5856113    0.00000       Uiso       1.00
       H17          H  0.2496982  0.7058497  0.5953398    0.00000       Uiso       1.00
       H18          H  0.2743852  0.6988985  0.5672323    0.00000       Uiso       1.00
        N6          N  0.5501792  0.3039019  0.4143875    0.00000       Uiso       1.00
       H19          H  0.5508884  0.2941501  0.4046589    0.00000       Uiso       1.00
       H20          H  0.5405166  0.3011013  0.4327664    0.00000       Uiso       1.00
        N7          N  0.6459191  0.5856120  0.3039019    0.00000       Uiso       1.00
       H21          H  0.6549619  0.5953405  0.2941501    0.00000       Uiso       1.00
       H22          H  0.6341948  0.5903894  0.2981802    0.00000       Uiso       1.00
        N8          N  0.5354337  0.4143878  0.6960975    0.00000       Uiso       1.00
       H23          H  0.5444531  0.4046592  0.7058493    0.00000       Uiso       1.00
       H24          H  0.5227649  0.4096105  0.7018191    0.00000       Uiso       1.00
       C26          C  0.3821604  0.5925568  0.5351149    0.00000       Uiso       1.00
       C27          C  0.3922597  0.5716808  0.5483546    0.00000       Uiso       1.00
       C28          C  0.3763093  0.5684157  0.5734105    0.00000       Uiso       1.00
       C29          C  0.3504616  0.5860229  0.5850835    0.00000       Uiso       1.00
       C30          C  0.3399257  0.6071743  0.5721723    0.00000       Uiso       1.00
       C31          C  0.3562784  0.6100931  0.5470183    0.00000       Uiso       1.00
       H25          H  0.3488680  0.6257858  0.5364608    0.00000       Uiso       1.00
       H26          H  0.3386286  0.5833562  0.6043914    0.00000       Uiso       1.00
       C32          C  0.5593858  0.5483552  0.4283187    0.00000       Uiso       1.00
       C33          C  0.5827247  0.5351155  0.4074428    0.00000       Uiso       1.00
       C34          C  0.5502804  0.5734110  0.4315839    0.00000       Uiso       1.00
       C35          C  0.5644550  0.5850841  0.4139767    0.00000       Uiso       1.00
       C36          C  0.5879020  0.5721729  0.3928253    0.00000       Uiso       1.00
       C37          C  0.5967032  0.5470189  0.3899066    0.00000       Uiso       1.00
       H27          H  0.6146712  0.5364614  0.3742138    0.00000       Uiso       1.00
       H28          H  0.5569801  0.6043921  0.4166435    0.00000       Uiso       1.00
       C38          C  0.5122958  0.4283189  0.4516443    0.00000       Uiso       1.00
       C39          C  0.5098327  0.4074431  0.4648839    0.00000       Uiso       1.00
       C40          C  0.5181362  0.4315840  0.4265884    0.00000       Uiso       1.00
       C41          C  0.5215687  0.4139767  0.4149153    0.00000       Uiso       1.00
       C42          C  0.5192729  0.3928255  0.4278265    0.00000       Uiso       1.00
       C43          C  0.5133904  0.3899068  0.4529805    0.00000       Uiso       1.00
       H29          H  0.5111148  0.3742142  0.4635381    0.00000       Uiso       1.00
       H30          H  0.5263771  0.4166434  0.3956073    0.00000       Uiso       1.00
       C44          C  0.5360602  0.4516446  0.5716805    0.00000       Uiso       1.00
       C45          C  0.5252834  0.4648843  0.5925565    0.00000       Uiso       1.00
       C46          C  0.5552759  0.4265888  0.5684153    0.00000       Uiso       1.00
       C47          C  0.5635164  0.4149157  0.5860226    0.00000       Uiso       1.00
       C48          C  0.5529008  0.4278269  0.6071740    0.00000       Uiso       1.00
       C49          C  0.5336292  0.4529808  0.6100928    0.00000       Uiso       1.00
       H31          H  0.5253468  0.4635384  0.6257856    0.00000       Uiso       1.00
       H32          H  0.5780162  0.3956078  0.5833557    0.00000       Uiso       1.00
       C50          C  0.3982584  0.5953512  0.5100571    0.00000       Uiso       1.00
       C51          C  0.4238779  0.5778525  0.4983577    0.00000       Uiso       1.00
       C52          C  0.3866208  0.5474422  0.5863072    0.00000       Uiso       1.00
       C53          C  0.4122557  0.5300314  0.5746190    0.00000       Uiso       1.00
       C54          C  0.5203712  0.4525574  0.4136915    0.00000       Uiso       1.00
       C55          C  0.5169072  0.4699681  0.4253798    0.00000       Uiso       1.00
       C56          C  0.5659380  0.4136920  0.5474418    0.00000       Uiso       1.00
       C57          C  0.5577137  0.4253803  0.5300310    0.00000       Uiso       1.00
       C58          C  0.5063910  0.4899421  0.5953510    0.00000       Uiso       1.00
       C59          C  0.4982701  0.5016415  0.5778523    0.00000       Uiso       1.00
       H33          H  0.4978462  0.5005801  0.6111326    0.00000       Uiso       1.00
       H34          H  0.4836715  0.5209497  0.5806657    0.00000       Uiso       1.00
       H35          H  0.5807334  0.3944670  0.5444505    0.00000       Uiso       1.00
       H36          H  0.5663688  0.4148203  0.5141407    0.00000       Uiso       1.00
       H37          H  0.4194911  0.5141411  0.5851790    0.00000       Uiso       1.00
       H38          H  0.3748166  0.5444510  0.6055323    0.00000       Uiso       1.00
       H39          H  0.4356630  0.5806659  0.4790495    0.00000       Uiso       1.00
       H40          H  0.3910215  0.6111328  0.4994190    0.00000       Uiso       1.00
       H41          H  0.5188124  0.4858583  0.4148197    0.00000       Uiso       1.00
       H42          H  0.5248011  0.4555485  0.3944663    0.00000       Uiso       1.00
       C60          C  0.4600964  0.5395326  0.4998053    0.00000       Uiso       1.00
       C61          C  0.4710448  0.5191680  0.5130698    0.00000       Uiso       1.00
       C62          C  0.4543131  0.5157571  0.5378864    0.00000       Uiso       1.00
       C63          C  0.4283953  0.5331160  0.5497089    0.00000       Uiso       1.00
       C64          C  0.4183409  0.5540033  0.5365030    0.00000       Uiso       1.00
       C65          C  0.4342267  0.5571016  0.5113955    0.00000       Uiso       1.00
       H43          H  0.4718663  0.5419130  0.4803669    0.00000       Uiso       1.00
       H44          H  0.4614658  0.4995307  0.5481774    0.00000       Uiso       1.00
       C66          C  0.5158856  0.5130702  0.4808314    0.00000       Uiso       1.00
       C67          C  0.5400985  0.4998057  0.4604670    0.00000       Uiso       1.00
       C68          C  0.5078006  0.5378869  0.4842423    0.00000       Uiso       1.00
       C69          C  0.5218961  0.5497094  0.4668835    0.00000       Uiso       1.00
       C70          C  0.5451562  0.5365036  0.4459963    0.00000       Uiso       1.00
       C71          C  0.5543782  0.5113959  0.4428980    0.00000       Uiso       1.00
       H45          H  0.5477670  0.4803673  0.4580866    0.00000       Uiso       1.00
       H46          H  0.4903571  0.5481778  0.5004686    0.00000       Uiso       1.00
       C72          C  0.5032832  0.4808317  0.4869292    0.00000       Uiso       1.00
       C73          C  0.4994346  0.4604673  0.5001937    0.00000       Uiso       1.00
       C74          C  0.5079575  0.4842426  0.4621124    0.00000       Uiso       1.00
       C75          C  0.5112210  0.4668836  0.4502900    0.00000       Uiso       1.00
       C76          C  0.5088479  0.4459965  0.4634959    0.00000       Uiso       1.00
       C77          C  0.5027241  0.4428983  0.4886035    0.00000       Uiso       1.00
       H47          H  0.4941465  0.4580870  0.5196321    0.00000       Uiso       1.00
       H48          H  0.5091748  0.5004689  0.4518215    0.00000       Uiso       1.00
       C78          C  0.5097878  0.4869296  0.5191677    0.00000       Uiso       1.00
       C79          C  0.5003716  0.5001941  0.5395322    0.00000       Uiso       1.00
       C80          C  0.5299304  0.4621129  0.5157567    0.00000       Uiso       1.00
       C81          C  0.5384894  0.4502904  0.5331157    0.00000       Uiso       1.00
       C82          C  0.5276564  0.4634962  0.5540029    0.00000       Uiso       1.00
       C83          C  0.5086724  0.4886039  0.5571012    0.00000       Uiso       1.00
       H49          H  0.4862213  0.5196325  0.5419127    0.00000       Uiso       1.00
       H50          H  0.5390041  0.4518220  0.4995304    0.00000       Uiso       1.00
       C84          C  0.5777645  0.4983582  0.4221471    0.00000       Uiso       1.00
       C85          C  0.5916846  0.5100576  0.4046484    0.00000       Uiso       1.00
       C86          C  0.5131255  0.5746195  0.4699680    0.00000       Uiso       1.00
       C87          C  0.5270722  0.5863078  0.4525574    0.00000       Uiso       1.00
       C88          C  0.5000885  0.4221475  0.5016413    0.00000       Uiso       1.00
       C89          C  0.5036669  0.4046488  0.4899419    0.00000       Uiso       1.00
       H51          H  0.6095595  0.4994196  0.3888668    0.00000       Uiso       1.00
       H52          H  0.5852875  0.4790500  0.4193337    0.00000       Uiso       1.00
       H53          H  0.4953302  0.5851796  0.4858583    0.00000       Uiso       1.00
       H54          H  0.5196513  0.6055329  0.4555486    0.00000       Uiso       1.00
       H55          H  0.4953785  0.4193342  0.5209495    0.00000       Uiso       1.00
       H56          H  0.5015734  0.3888673  0.5005800    0.00000       Uiso       1.00
       C90          C  0.7502745  0.8749997  0.3748172    0.00000       Uiso       1.00
       C91          C  0.6330064  0.0717565  0.3404453    0.00000       Uiso       1.00
       C92          C  0.6470644  0.0628606  0.3521705    0.00000       Uiso       1.00
       C93          C  0.6464510  0.0800974  0.3612829    0.00000       Uiso       1.00
       C94          C  0.6322105  0.1059235  0.3584219    0.00000       Uiso       1.00
       C95          C  0.6183767  0.1148196  0.3464252    0.00000       Uiso       1.00
       C96          C  0.6188485  0.0975885  0.3374603    0.00000       Uiso       1.00
       H57          H  0.6328006  0.0589026  0.3336316    0.00000       Uiso       1.00
       H58          H  0.6569993  0.0735461  0.3706198    0.00000       Uiso       1.00
       C97          C  0.7274285  0.7719272  0.3127999    0.00000       Uiso       1.00
       C98          C  0.7157006  0.7578757  0.3296731    0.00000       Uiso       1.00
       C99          C  0.7365160  0.7713263  0.2870758    0.00000       Uiso       1.00
      C100          C  0.7336278  0.7571048  0.2783492    0.00000       Uiso       1.00
      C101          C  0.7216281  0.7432775  0.2952698    0.00000       Uiso       1.00
      C102          C  0.7126882  0.7437367  0.3209820    0.00000       Uiso       1.00
       H59          H  0.7089059  0.7576606  0.3495367    0.00000       Uiso       1.00
       H60          H  0.7458549  0.7818699  0.2737526    0.00000       Uiso       1.00
      C103          C  0.6884251  0.8520784  0.5626438    0.00000       Uiso       1.00
      C104          C  0.7053275  0.8403401  0.5715226    0.00000       Uiso       1.00
      C105          C  0.6626953  0.8611655  0.5798939    0.00000       Uiso       1.00
      C106          C  0.6539916  0.8582668  0.6057158    0.00000       Uiso       1.00
      C107          C  0.6709412  0.8462572  0.6145944    0.00000       Uiso       1.00
      C108          C  0.6966593  0.8373175  0.5973503    0.00000       Uiso       1.00
       H61          H  0.7251963  0.8335454  0.5586588    0.00000       Uiso       1.00
       H62          H  0.6493497  0.8705121  0.5733562    0.00000       Uiso       1.00
      C109          C  0.9381800  0.8131334  0.2716544    0.00000       Uiso       1.00
      C110          C  0.9470635  0.8300272  0.2576276    0.00000       Uiso       1.00
      C111          C  0.9554357  0.7874101  0.2710159    0.00000       Uiso       1.00
      C112          C  0.9812682  0.7787043  0.2567816    0.00000       Uiso       1.00
      C113          C  0.9901518  0.7956452  0.2429792    0.00000       Uiso       1.00
      C114          C  0.9729019  0.8213568  0.2434760    0.00000       Uiso       1.00
       H63          H  0.9341951  0.8498910  0.2574415    0.00000       Uiso       1.00
       H64          H  0.9488940  0.7740715  0.2815399    0.00000       Uiso       1.00
        N9          N  0.7434463  0.7569215  0.2508552    0.00000       Uiso       1.00
       H65          H  0.7399797  0.7459885  0.2476084    0.00000       Uiso       1.00
       H66          H  0.7619722  0.7502508  0.2414546    0.00000       Uiso       1.00
       N10          N  0.6264907  0.8680852  0.6235887    0.00000       Uiso       1.00
       H67          H  0.6232625  0.8646107  0.6412220    0.00000       Uiso       1.00
       H68          H  0.6207342  0.8596106  0.6203165    0.00000       Uiso       1.00
       N11          N  0.9991468  0.7512106  0.2565583    0.00000       Uiso       1.00
       H69          H  0.0167881  0.7479798  0.2456205    0.00000       Uiso       1.00
       H70          H  0.9966943  0.7418197  0.2498737    0.00000       Uiso       1.00
       N12          N  0.6320143  0.1237821  0.3682665    0.00000       Uiso       1.00
       H71          H  0.6210682  0.1414205  0.3648177    0.00000       Uiso       1.00
       H72          H  0.6495137  0.1205223  0.3597871    0.00000       Uiso       1.00
       N13          N  0.6041752  0.1064614  0.3247814    0.00000       Uiso       1.00
       H73          H  0.5951248  0.1252265  0.3240794    0.00000       Uiso       1.00
       H74          H  0.5917169  0.1005295  0.3344461    0.00000       Uiso       1.00
       N14          N  0.7151545  0.8246256  0.6062046    0.00000       Uiso       1.00
       H75          H  0.7061560  0.8238961  0.6249686    0.00000       Uiso       1.00
       H76          H  0.7238686  0.8342990  0.6002868    0.00000       Uiso       1.00
       N15          N  0.7000070  0.7290699  0.3394465    0.00000       Uiso       1.00
       H77          H  0.6992841  0.7200333  0.3304342    0.00000       Uiso       1.00
       H78          H  0.6825667  0.7407722  0.3521187    0.00000       Uiso       1.00
       N16          N  0.9817612  0.8398427  0.2288362    0.00000       Uiso       1.00
       H79          H  0.0005335  0.8308436  0.2197864    0.00000       Uiso       1.00
       H80          H  0.9748263  0.8524978  0.2405571    0.00000       Uiso       1.00
      C115          C  0.6674752  0.9927863  0.3650523    0.00000       Uiso       1.00
      C116          C  0.6908277  0.9827059  0.3625740    0.00000       Uiso       1.00
      C117          C  0.6999312  0.9986674  0.3567314    0.00000       Uiso       1.00
      C118          C  0.6857408  0.0245080  0.3533117    0.00000       Uiso       1.00
      C119          C  0.6622800  0.0350250  0.3556227    0.00000       Uiso       1.00
      C120          C  0.6534810  0.0186614  0.3615073    0.00000       Uiso       1.00
       H81          H  0.6355032  0.0260571  0.3637940    0.00000       Uiso       1.00
       H82          H  0.6932143  0.0363499  0.3485015    0.00000       Uiso       1.00
      C121          C  0.7379174  0.8156316  0.3387927    0.00000       Uiso       1.00
      C122          C  0.7403978  0.7922866  0.3495597    0.00000       Uiso       1.00
      C123          C  0.7320448  0.8247467  0.3195953    0.00000       Uiso       1.00
      C124          C  0.7285976  0.8105755  0.3113634    0.00000       Uiso       1.00
      C125          C  0.7309103  0.7871225  0.3219695    0.00000       Uiso       1.00
      C126          C  0.7368253  0.7783116  0.3412227    0.00000       Uiso       1.00
       H83          H  0.7391143  0.7603391  0.3494973    0.00000       Uiso       1.00
       H84          H  0.7237646  0.8180577  0.2968778    0.00000       Uiso       1.00
      C127          C  0.7143462  0.8625991  0.4825052    0.00000       Uiso       1.00
      C128          C  0.7251454  0.8650628  0.4925894    0.00000       Uiso       1.00
      C129          C  0.6951400  0.8567330  0.4984581    0.00000       Uiso       1.00
      C130          C  0.6869313  0.8532755  0.5242929    0.00000       Uiso       1.00
      C131          C  0.6975698  0.8555713  0.5348133    0.00000       Uiso       1.00
      C132          C  0.7168314  0.8614801  0.5184585    0.00000       Uiso       1.00
       H85          H  0.7251305  0.8637562  0.5258575    0.00000       Uiso       1.00
       H86          H  0.6724384  0.8484478  0.5361277    0.00000       Uiso       1.00
      C133          C  0.8580071  0.8390623  0.3153966    0.00000       Uiso       1.00
      C134          C  0.8680796  0.8498634  0.2920675    0.00000       Uiso       1.00
      C135          C  0.8739825  0.8198515  0.3244837    0.00000       Uiso       1.00
      C136          C  0.8998284  0.8116403  0.3103005    0.00000       Uiso       1.00
      C137          C  0.9103377  0.8222807  0.2868630    0.00000       Uiso       1.00
      C138          C  0.8939600  0.8415468  0.2780803    0.00000       Uiso       1.00
       H87          H  0.9013496  0.8498477  0.2601200    0.00000       Uiso       1.00
       H88          H  0.9116810  0.7971436  0.3177614    0.00000       Uiso       1.00
      C139          C  0.6585177  0.9766774  0.3712198    0.00000       Uiso       1.00
      C140          C  0.6724533  0.9510655  0.3747855    0.00000       Uiso       1.00
      C141          C  0.7231532  0.9883745  0.3544814    0.00000       Uiso       1.00
      C142          C  0.7371151  0.9627473  0.3579327    0.00000       Uiso       1.00
      C143          C  0.6844552  0.8544977  0.4881619    0.00000       Uiso       1.00
      C144          C  0.6926480  0.8579865  0.4625397    0.00000       Uiso       1.00
      C145          C  0.8636976  0.8091649  0.3476824    0.00000       Uiso       1.00
      C146          C  0.8380643  0.8173602  0.3616375    0.00000       Uiso       1.00
      C147          C  0.8519568  0.8687506  0.2831259    0.00000       Uiso       1.00
      C148          C  0.8263388  0.8768426  0.2970545    0.00000       Uiso       1.00
       H89          H  0.8591727  0.8773138  0.2652588    0.00000       Uiso       1.00
       H90          H  0.8145340  0.8914381  0.2895456    0.00000       Uiso       1.00
       H91          H  0.8755212  0.7943727  0.3550892    0.00000       Uiso       1.00
       H92          H  0.8308497  0.8086867  0.3794251    0.00000       Uiso       1.00
       H93          H  0.7549206  0.9555264  0.3560162    0.00000       Uiso       1.00
       H94          H  0.7305728  0.0001881  0.3500495    0.00000       Uiso       1.00
       H95          H  0.6649317  0.9392713  0.3794973    0.00000       Uiso       1.00
       H96          H  0.6406329  0.9838997  0.3733247    0.00000       Uiso       1.00
       H97          H  0.6839761  0.8560803  0.4553159    0.00000       Uiso       1.00
       H98          H  0.6696665  0.8500484  0.4999682    0.00000       Uiso       1.00
      C149          C  0.7101479  0.9148740  0.3754115    0.00000       Uiso       1.00
      C150          C  0.7343730  0.9039460  0.3715483    0.00000       Uiso       1.00
      C151          C  0.7424570  0.9206871  0.3668718    0.00000       Uiso       1.00
      C152          C  0.7283464  0.9465971  0.3636209    0.00000       Uiso       1.00
      C153          C  0.7050727  0.9566327  0.3660091    0.00000       Uiso       1.00
      C154          C  0.6958531  0.9407357  0.3721350    0.00000       Uiso       1.00
       H99          H  0.7024816  0.9030945  0.3807012    0.00000       Uiso       1.00
      H100          H  0.7599114  0.9135482  0.3656428    0.00000       Uiso       1.00
      C155          C  0.7469749  0.8591192  0.3650393    0.00000       Uiso       1.00
      C156          C  0.7508400  0.8349022  0.3744456    0.00000       Uiso       1.00
      C157          C  0.7422680  0.8672156  0.3449148    0.00000       Uiso       1.00
      C158          C  0.7389896  0.8531240  0.3363644    0.00000       Uiso       1.00
      C159          C  0.7413801  0.8298576  0.3471876    0.00000       Uiso       1.00
      C160          C  0.7475359  0.8206263  0.3661533    0.00000       Uiso       1.00
      H101          H  0.7561527  0.8272272  0.3885817    0.00000       Uiso       1.00
      H102          H  0.7410366  0.8846648  0.3358486    0.00000       Uiso       1.00
      C161          C  0.7405224  0.8716884  0.4037587    0.00000       Uiso       1.00
      C162          C  0.7499613  0.8755360  0.4146922    0.00000       Uiso       1.00
      C163          C  0.7203897  0.8669873  0.4204928    0.00000       Uiso       1.00
      C164          C  0.7118624  0.8636985  0.4463980    0.00000       Uiso       1.00
      C165          C  0.7227178  0.8660722  0.4564371    0.00000       Uiso       1.00
      C166          C  0.7416922  0.8722216  0.4405491    0.00000       Uiso       1.00
      H103          H  0.7641046  0.8808431  0.4029206    0.00000       Uiso       1.00
      H104          H  0.7112989  0.8657686  0.4133520    0.00000       Uiso       1.00
      C167          C  0.7792280  0.8652450  0.3589224    0.00000       Uiso       1.00
      C168          C  0.7901490  0.8746870  0.3347193    0.00000       Uiso       1.00
      C169          C  0.7959838  0.8451088  0.3669893    0.00000       Uiso       1.00
      C170          C  0.8219001  0.8365790  0.3528853    0.00000       Uiso       1.00
      C171          C  0.8319277  0.8474364  0.3296348    0.00000       Uiso       1.00
      C172          C  0.8160168  0.8664156  0.3204313    0.00000       Uiso       1.00
      H105          H  0.7783592  0.8888343  0.3270651    0.00000       Uiso       1.00
      H106          H  0.7888514  0.8360171  0.3844253    0.00000       Uiso       1.00
      C173          C  0.7501886  0.7972341  0.3765460    0.00000       Uiso       1.00
      C174          C  0.7465956  0.7833173  0.3684337    0.00000       Uiso       1.00
      C175          C  0.7332714  0.8619044  0.3171585    0.00000       Uiso       1.00
      C176          C  0.7297927  0.8479611  0.3089428    0.00000       Uiso       1.00
      C177          C  0.7521170  0.8748573  0.4508828    0.00000       Uiso       1.00
      C178          C  0.7440279  0.8712541  0.4764895    0.00000       Uiso       1.00
      H107          H  0.7487028  0.7654377  0.3769707    0.00000       Uiso       1.00
      H108          H  0.7549231  0.7897039  0.3911304    0.00000       Uiso       1.00
      H109          H  0.7313522  0.8797047  0.3085112    0.00000       Uiso       1.00
      H110          H  0.7253381  0.8553897  0.2941614    0.00000       Uiso       1.00
      H111          H  0.7667089  0.8795865  0.4390956    0.00000       Uiso       1.00
      H112          H  0.7525893  0.8733486  0.4837149    0.00000       Uiso       1.00
      C179          C  0.8747254  0.6251829  0.8750000    0.00000       Uiso       1.00
      C180          C  0.7229089  0.7423729  0.8300273    0.00000       Uiso       1.00
      C181          C  0.7486862  0.7283460  0.8131335    0.00000       Uiso       1.00
      C182          C  0.7571537  0.7289845  0.7874103    0.00000       Uiso       1.00
      C183          C  0.7400270  0.7432188  0.7787045    0.00000       Uiso       1.00
      C184          C  0.7142023  0.7570213  0.7956454    0.00000       Uiso       1.00
      C185          C  0.7057409  0.7565246  0.8213568    0.00000       Uiso       1.00
      H113          H  0.7159135  0.7425590  0.8498911    0.00000       Uiso       1.00
      H114          H  0.7770339  0.7184605  0.7740716    0.00000       Uiso       1.00
      C186          C  0.7900749  0.6478290  0.0628609    0.00000       Uiso       1.00
      C187          C  0.7952370  0.6595542  0.0717568    0.00000       Uiso       1.00
      C188          C  0.7734515  0.6387166  0.0800977    0.00000       Uiso       1.00
      C189          C  0.7618659  0.6415775  0.1059238    0.00000       Uiso       1.00
      C190          C  0.7668036  0.6535743  0.1148199    0.00000       Uiso       1.00
      C191          C  0.7835628  0.6625391  0.0975889    0.00000       Uiso       1.00
      H115          H  0.8082967  0.6663678  0.0589030    0.00000       Uiso       1.00
      H116          H  0.7694545  0.6293797  0.0735464    0.00000       Uiso       1.00
      C192          C  0.0006444  0.6872001  0.7719278    0.00000       Uiso       1.00
      C193          C  0.0264238  0.6703268  0.7578763    0.00000       Uiso       1.00
      C194          C  0.9921571  0.7129242  0.7713270    0.00000       Uiso       1.00
      C195          C  0.0092675  0.7216508  0.7571054    0.00000       Uiso       1.00
      C196          C  0.0350944  0.7047301  0.7432781    0.00000       Uiso       1.00
      C197          C  0.0435751  0.6790179  0.7437373    0.00000       Uiso       1.00
      H117          H  0.0334336  0.6504632  0.7576611    0.00000       Uiso       1.00
      H118          H  0.9722747  0.7262475  0.7818704    0.00000       Uiso       1.00
      C198          C  0.9594963  0.4373561  0.8520787    0.00000       Uiso       1.00
      C199          C  0.9543321  0.4284773  0.8403405    0.00000       Uiso       1.00
      C200          C  0.9761390  0.4201059  0.8611659    0.00000       Uiso       1.00
      C201          C  0.9877414  0.3942840  0.8582672    0.00000       Uiso       1.00
      C202          C  0.9828014  0.3854055  0.8462575    0.00000       Uiso       1.00
      C203          C  0.9660230  0.4026496  0.8373178    0.00000       Uiso       1.00
      H119          H  0.9412580  0.4413412  0.8335457    0.00000       Uiso       1.00
      H120          H  0.9801380  0.4266436  0.8705124    0.00000       Uiso       1.00
       N17          N  0.7442036  0.6317331  0.1237824    0.00000       Uiso       1.00
      H121          H  0.7375112  0.6351818  0.1414207    0.00000       Uiso       1.00
      H122          H  0.7533320  0.6132156  0.1213230    0.00000       Uiso       1.00
       N18          N  0.9996318  0.7491449  0.7569221    0.00000       Uiso       1.00
      H123          H  0.0140317  0.7523916  0.7459891    0.00000       Uiso       1.00
      H124          H  0.9906219  0.7548820  0.7744192    0.00000       Uiso       1.00
       N19          N  0.0054245  0.3764110  0.8680856    0.00000       Uiso       1.00
      H125          H  0.0121272  0.3587777  0.8646111    0.00000       Uiso       1.00
      H126          H  0.9963074  0.3788433  0.8866066    0.00000       Uiso       1.00
       N20          N  0.7496420  0.7434422  0.7512107    0.00000       Uiso       1.00
      H127          H  0.7352321  0.7543801  0.7479799    0.00000       Uiso       1.00
      H128          H  0.7586603  0.7259536  0.7454481    0.00000       Uiso       1.00
       N21          N  0.6783956  0.7711643  0.8398427    0.00000       Uiso       1.00
      H129          H  0.6686229  0.7802141  0.8308436    0.00000       Uiso       1.00
      H130          H  0.6756128  0.7836142  0.8485637    0.00000       Uiso       1.00
       N22          N  0.0709231  0.6605534  0.7290706    0.00000       Uiso       1.00
      H131          H  0.0806826  0.6695657  0.7200339    0.00000       Uiso       1.00
      H132          H  0.0737032  0.6518506  0.7166080    0.00000       Uiso       1.00
       N23          N  0.7893634  0.6752180  0.1064617    0.00000       Uiso       1.00
      H133          H  0.7796486  0.6759201  0.1252269    0.00000       Uiso       1.00
      H134          H  0.7845817  0.6926600  0.0995360    0.00000       Uiso       1.00
       N24          N  0.9602197  0.3937954  0.8246259    0.00000       Uiso       1.00
      H135          H  0.9699478  0.3750312  0.8238965    0.00000       Uiso       1.00
      H136          H  0.9649835  0.4007466  0.8071942    0.00000       Uiso       1.00
      C204          C  0.7820567  0.7079329  0.8498634    0.00000       Uiso       1.00
      C205          C  0.8029304  0.6846037  0.8390624    0.00000       Uiso       1.00
      C206          C  0.8061655  0.6755166  0.8198517    0.00000       Uiso       1.00
      C207          C  0.7885308  0.6896998  0.8116404    0.00000       Uiso       1.00
      C208          C  0.7673811  0.7131373  0.8222809    0.00000       Uiso       1.00
      C209          C  0.7644928  0.7219202  0.8415468    0.00000       Uiso       1.00
      H137          H  0.7488024  0.7398805  0.8498477    0.00000       Uiso       1.00
      H138          H  0.7911748  0.6822389  0.7971439    0.00000       Uiso       1.00
      C210          C  0.8264662  0.6374260  0.9827061    0.00000       Uiso       1.00
      C211          C  0.8397382  0.6349477  0.9927865    0.00000       Uiso       1.00
      C212          C  0.8014013  0.6432686  0.9986675    0.00000       Uiso       1.00
      C213          C  0.7897510  0.6466878  0.0245083    0.00000       Uiso       1.00
      C214          C  0.8026948  0.6443768  0.0350254    0.00000       Uiso       1.00
      C215          C  0.8278573  0.6384922  0.0186619    0.00000       Uiso       1.00
      H139          H  0.8384396  0.6362056  0.0260575    0.00000       Uiso       1.00
      H140          H  0.7704357  0.6514980  0.0363502    0.00000       Uiso       1.00
      C216          C  0.9464508  0.6612073  0.8156320    0.00000       Uiso       1.00
      C217          C  0.9673151  0.6504405  0.7922870    0.00000       Uiso       1.00
      C218          C  0.9432082  0.6804045  0.8247473    0.00000       Uiso       1.00
      C219          C  0.9608265  0.6886365  0.8105761    0.00000       Uiso       1.00
      C220          C  0.9819667  0.6780306  0.7871230    0.00000       Uiso       1.00
      C221          C  0.9848627  0.6587775  0.7783119    0.00000       Uiso       1.00
      H141          H  0.0005464  0.6505030  0.7603394    0.00000       Uiso       1.00
      H142          H  0.9581776  0.7031220  0.8180583    0.00000       Uiso       1.00
      C222          C  0.9230545  0.5174947  0.8625994    0.00000       Uiso       1.00
      C223          C  0.9097918  0.5074107  0.8650627    0.00000       Uiso       1.00
      C224          C  0.9481267  0.5015419  0.8567336    0.00000       Uiso       1.00
      C225          C  0.9597929  0.4757070  0.8532761    0.00000       Uiso       1.00
      C226          C  0.9468586  0.4651866  0.8555717    0.00000       Uiso       1.00
      C227          C  0.9216884  0.4815415  0.8614800    0.00000       Uiso       1.00
      H143          H  0.9111133  0.4741426  0.8637558    0.00000       Uiso       1.00
      H144          H  0.9791134  0.4638721  0.8484487    0.00000       Uiso       1.00
      C228          C  0.7792924  0.7168746  0.8687505    0.00000       Uiso       1.00
      C229          C  0.7968184  0.7029458  0.8768425    0.00000       Uiso       1.00
      C230          C  0.8271371  0.6523178  0.8091652    0.00000       Uiso       1.00
      C231          C  0.8445750  0.6383626  0.8173606    0.00000       Uiso       1.00
      C232          C  0.9222460  0.6910569  0.8479617    0.00000       Uiso       1.00
      C233          C  0.9048242  0.6828412  0.8619049    0.00000       Uiso       1.00
      C234          C  0.9610466  0.5118380  0.8544987    0.00000       Uiso       1.00
      C235          C  0.9493651  0.5374601  0.8579875    0.00000       Uiso       1.00
      C236          C  0.8847181  0.5235106  0.8712536    0.00000       Uiso       1.00
      C237          C  0.8730256  0.5491174  0.8748568    0.00000       Uiso       1.00
      H145          H  0.8740622  0.5162854  0.8733478    0.00000       Uiso       1.00
      H146          H  0.8537047  0.5609047  0.8795857    0.00000       Uiso       1.00
      H147          H  0.9802847  0.5000316  0.8500497    0.00000       Uiso       1.00
      H148          H  0.9599431  0.5446839  0.8560815    0.00000       Uiso       1.00
      H149          H  0.8604630  0.6205750  0.8086872    0.00000       Uiso       1.00
      H150          H  0.8301055  0.6449109  0.7943731    0.00000       Uiso       1.00
      H151          H  0.7940279  0.7104548  0.8914379    0.00000       Uiso       1.00
      H152          H  0.7635133  0.7347417  0.8773136    0.00000       Uiso       1.00
      H153          H  0.8889431  0.6914884  0.8797053    0.00000       Uiso       1.00
      H154          H  0.9192722  0.7058381  0.8553903    0.00000       Uiso       1.00
      C238          C  0.8351637  0.6652810  0.8746871    0.00000       Uiso       1.00
      C239          C  0.8555266  0.6410777  0.8652453    0.00000       Uiso       1.00
      C240          C  0.8589071  0.6330109  0.8451090    0.00000       Uiso       1.00
      C241          C  0.8415205  0.6471149  0.8365793    0.00000       Uiso       1.00
      C242          C  0.8206356  0.6703655  0.8474365    0.00000       Uiso       1.00
      C243          C  0.8175673  0.6795689  0.8664157    0.00000       Uiso       1.00
      H155          H  0.8328062  0.6729352  0.8888344    0.00000       Uiso       1.00
      H156          H  0.8751312  0.6155750  0.8360173    0.00000       Uiso       1.00
      C244          C  0.8616808  0.6284518  0.9039463    0.00000       Uiso       1.00
      C245          C  0.8749779  0.6245884  0.9148743    0.00000       Uiso       1.00
      C246          C  0.8368558  0.6331283  0.9206873    0.00000       Uiso       1.00
      C247          C  0.8250563  0.6363791  0.9465973    0.00000       Uiso       1.00
      C248          C  0.8382944  0.6339909  0.9566329    0.00000       Uiso       1.00
      C249          C  0.8634110  0.6278650  0.9407360    0.00000       Uiso       1.00
      H157          H  0.8944237  0.6192986  0.9030949    0.00000       Uiso       1.00
      H158          H  0.8265402  0.6343575  0.9135483    0.00000       Uiso       1.00
      C250          C  0.8939056  0.6349608  0.8591195    0.00000       Uiso       1.00
      C251          C  0.9142573  0.6255546  0.8349025    0.00000       Uiso       1.00
      C252          C  0.8905163  0.6550851  0.8672159    0.00000       Uiso       1.00
      C253          C  0.9078863  0.6636355  0.8531244    0.00000       Uiso       1.00
      C254          C  0.9287620  0.6528124  0.8298580    0.00000       Uiso       1.00
      C255          C  0.9318373  0.6338468  0.8206266    0.00000       Uiso       1.00
      H159          H  0.9166195  0.6114185  0.8272275    0.00000       Uiso       1.00
      H160          H  0.8742985  0.6641513  0.8846651    0.00000       Uiso       1.00
      C256          C  0.8877889  0.5962414  0.8716888    0.00000       Uiso       1.00
      C257          C  0.8745026  0.5853079  0.8755360    0.00000       Uiso       1.00
      C258          C  0.9126227  0.5795072  0.8669878    0.00000       Uiso       1.00
      C259          C  0.9244388  0.5536020  0.8636991    0.00000       Uiso       1.00
      C260          C  0.9112097  0.5435629  0.8660725    0.00000       Uiso       1.00
      C261          C  0.8860860  0.5594510  0.8722215    0.00000       Uiso       1.00
      H161          H  0.8550522  0.5970795  0.8808429    0.00000       Uiso       1.00
      H162          H  0.9229322  0.5866480  0.8657692    0.00000       Uiso       1.00
      C262          C  0.8764810  0.6252145  0.9510657    0.00000       Uiso       1.00
      C263          C  0.8648046  0.6287802  0.9766777    0.00000       Uiso       1.00
      C264          C  0.8001375  0.6420673  0.9627473    0.00000       Uiso       1.00
      C265          C  0.7884722  0.6455187  0.9883747    0.00000       Uiso       1.00
      C266          C  0.9525767  0.6234543  0.7972344    0.00000       Uiso       1.00
      C267          C  0.9700865  0.6315666  0.7833176    0.00000       Uiso       1.00
      H163          H  0.8754673  0.6266754  0.9838999    0.00000       Uiso       1.00
      H164          H  0.8957968  0.6205027  0.9392716    0.00000       Uiso       1.00
      H165          H  0.7895528  0.6439840  0.9555265    0.00000       Uiso       1.00
      H166          H  0.7692391  0.6499501  0.0001884    0.00000       Uiso       1.00
      H167          H  0.9553723  0.6088700  0.7897041    0.00000       Uiso       1.00
      H168          H  0.9858586  0.6230298  0.7654380    0.00000       Uiso       1.00
      C268          C  0.0000918  0.1250000  0.6251833    0.00000       Uiso       1.00
      C269          C  0.0452084  0.9282433  0.6595550    0.00000       Uiso       1.00
      C270          C  0.0620957  0.9371392  0.6478299    0.00000       Uiso       1.00
      C271          C  0.0878316  0.9199023  0.6387175    0.00000       Uiso       1.00
      C272          C  0.0965562  0.8940762  0.6415784    0.00000       Uiso       1.00
      C273          C  0.0796219  0.8851801  0.6535751    0.00000       Uiso       1.00
      C274          C  0.0538977  0.9024112  0.6625399    0.00000       Uiso       1.00
      H169          H  0.0253352  0.9410972  0.6663686    0.00000       Uiso       1.00
      H170          H  0.1011654  0.9264537  0.6293806    0.00000       Uiso       1.00
      C275          C  0.8121557  0.2280726  0.6872001    0.00000       Uiso       1.00
      C276          C  0.8032495  0.2421241  0.6703268    0.00000       Uiso       1.00
      C277          C  0.7949184  0.2286734  0.7129242    0.00000       Uiso       1.00
      C278          C  0.7690819  0.2428950  0.7216507    0.00000       Uiso       1.00
      C279          C  0.7601757  0.2567223  0.7047301    0.00000       Uiso       1.00
      C280          C  0.7774071  0.2562631  0.6790179    0.00000       Uiso       1.00
      H171          H  0.8161033  0.2423392  0.6504633    0.00000       Uiso       1.00
      H172          H  0.8014774  0.2181299  0.7262475    0.00000       Uiso       1.00
      C281          C  0.1031475  0.1479214  0.4373567    0.00000       Uiso       1.00
      C282          C  0.1171904  0.1596596  0.4284780    0.00000       Uiso       1.00
      C283          C  0.1037549  0.1388342  0.4201065    0.00000       Uiso       1.00
      C284          C  0.1179744  0.1417329  0.3942846    0.00000       Uiso       1.00
      C285          C  0.1317929  0.1537426  0.3854061    0.00000       Uiso       1.00
      C286          C  0.1313272  0.1626822  0.4026503    0.00000       Uiso       1.00
      H173          H  0.1174006  0.1664544  0.4413418    0.00000       Uiso       1.00
      H174          H  0.0932182  0.1294877  0.4266442    0.00000       Uiso       1.00
      C287          C  0.0229680  0.1868664  0.7283464    0.00000       Uiso       1.00
      C288          C  0.0347187  0.1699726  0.7423732    0.00000       Uiso       1.00
      C289          C  0.0138621  0.2125896  0.7289849    0.00000       Uiso       1.00
      C290          C  0.0167544  0.2212954  0.7432193    0.00000       Uiso       1.00
      C291          C  0.0287766  0.2043545  0.7570217    0.00000       Uiso       1.00
      C292          C  0.0377350  0.1786430  0.7565250    0.00000       Uiso       1.00
      H175          H  0.0415279  0.1501087  0.7425594    0.00000       Uiso       1.00
      H176          H  0.0045058  0.2259283  0.7184609    0.00000       Uiso       1.00
       N25          N  0.7512233  0.2430782  0.7491447    0.00000       Uiso       1.00
      H177          H  0.7335769  0.2540113  0.7523915    0.00000       Uiso       1.00
      H178          H  0.7536777  0.2497490  0.7585455    0.00000       Uiso       1.00
       N26          N  0.1181647  0.1319145  0.3764117    0.00000       Uiso       1.00
      H179          H  0.1290953  0.1353890  0.3587784    0.00000       Uiso       1.00
      H180          H  0.1006615  0.1403891  0.3796839    0.00000       Uiso       1.00
       N27          N  0.0069160  0.2487891  0.7434427    0.00000       Uiso       1.00
      H181          H  0.0103881  0.2520199  0.7543805    0.00000       Uiso       1.00
      H182          H  0.9883875  0.2581800  0.7501271    0.00000       Uiso       1.00
       N28          N  0.1240630  0.8762177  0.6317340    0.00000       Uiso       1.00
      H183          H  0.1273067  0.8585792  0.6351827    0.00000       Uiso       1.00
      H184          H  0.1298233  0.8794774  0.6402134    0.00000       Uiso       1.00
       N29          N  0.0354183  0.8935384  0.6752188    0.00000       Uiso       1.00
      H185          H  0.0444311  0.8747732  0.6759209    0.00000       Uiso       1.00
      H186          H  0.0266929  0.8994703  0.6655541    0.00000       Uiso       1.00
       N30          N  0.1459847  0.1753742  0.3937961    0.00000       Uiso       1.00
      H187          H  0.1550208  0.1761036  0.3750320    0.00000       Uiso       1.00
      H188          H  0.1584544  0.1657008  0.3997139    0.00000       Uiso       1.00
       N31          N  0.7685236  0.2709299  0.6605534    0.00000       Uiso       1.00
      H189          H  0.7497517  0.2799665  0.6695657    0.00000       Uiso       1.00
      H190          H  0.7754579  0.2592275  0.6478812    0.00000       Uiso       1.00
       N32          N  0.0504404  0.1601571  0.7711647    0.00000       Uiso       1.00
      H191          H  0.0511633  0.1691562  0.7802145    0.00000       Uiso       1.00
      H192          H  0.0678814  0.1475019  0.7594439    0.00000       Uiso       1.00
      C293          C  0.0253143  0.0072134  0.6349481    0.00000       Uiso       1.00
      C294          C  0.0361080  0.0172938  0.6374263    0.00000       Uiso       1.00
      C295          C  0.0553304  0.0013324  0.6432690    0.00000       Uiso       1.00
      C296          C  0.0635608  0.9754918  0.6466886    0.00000       Uiso       1.00
      C297          C  0.0529281  0.9649748  0.6443776    0.00000       Uiso       1.00
      C298          C  0.0336501  0.9813383  0.6384930    0.00000       Uiso       1.00
      H193          H  0.0253546  0.9739427  0.6362062    0.00000       Uiso       1.00
      H194          H  0.0780660  0.9636499  0.6514989    0.00000       Uiso       1.00
      C299          C  0.8923416  0.1843682  0.6612075    0.00000       Uiso       1.00
      C300          C  0.8822441  0.2077132  0.6504405    0.00000       Uiso       1.00
      C301          C  0.8763868  0.1752530  0.6804048    0.00000       Uiso       1.00
      C302          C  0.8505365  0.1894242  0.6886368    0.00000       Uiso       1.00
      C303          C  0.8400025  0.2128773  0.6780306    0.00000       Uiso       1.00
      C304          C  0.8563596  0.2216882  0.6587775    0.00000       Uiso       1.00
      H195          H  0.8489509  0.2396606  0.6505028    0.00000       Uiso       1.00
      H196          H  0.8387002  0.1819421  0.7031223    0.00000       Uiso       1.00
      C305          C  0.0594508  0.1374007  0.5174952    0.00000       Uiso       1.00
      C306          C  0.0827977  0.1349370  0.5074112    0.00000       Uiso       1.00
      C307          C  0.0503312  0.1432668  0.5015424    0.00000       Uiso       1.00
      C308          C  0.0644999  0.1467243  0.4757075    0.00000       Uiso       1.00
      C309          C  0.0879548  0.1444284  0.4651871    0.00000       Uiso       1.00
      C310          C  0.0967702  0.1385197  0.4815420    0.00000       Uiso       1.00
      H197          H  0.1147443  0.1362436  0.4741431    0.00000       Uiso       1.00
      H198          H  0.0570142  0.1515519  0.4638726    0.00000       Uiso       1.00
      C311          C  0.0124663  0.1609375  0.6846040    0.00000       Uiso       1.00
      C312          C  0.0100108  0.1501364  0.7079331    0.00000       Uiso       1.00
      C313          C  0.0183181  0.1801483  0.6755170    0.00000       Uiso       1.00
      C314          C  0.0217695  0.1883595  0.6897002    0.00000       Uiso       1.00
      C315          C  0.0194818  0.1777190  0.7131377    0.00000       Uiso       1.00
      C316          C  0.0135875  0.1584529  0.7219204    0.00000       Uiso       1.00
      H199          H  0.0113177  0.1501520  0.7398807    0.00000       Uiso       1.00
      H200          H  0.0265864  0.2028561  0.6822394    0.00000       Uiso       1.00
      C317          C  0.0064154  0.0233224  0.6287804    0.00000       Uiso       1.00
      C318          C  0.9983042  0.0489343  0.6252148    0.00000       Uiso       1.00
      C319          C  0.0660094  0.0116252  0.6455191    0.00000       Uiso       1.00
      C320          C  0.0577954  0.0372525  0.6420677    0.00000       Uiso       1.00
      C321          C  0.0271151  0.1455021  0.5118385    0.00000       Uiso       1.00
      C322          C  0.0131745  0.1420132  0.5374606    0.00000       Uiso       1.00
      C323          C  0.0205452  0.1908349  0.6523182    0.00000       Uiso       1.00
      C324          C  0.0170623  0.1826396  0.6383631    0.00000       Uiso       1.00
      C325          C  0.0038336  0.1312491  0.7168747    0.00000       Uiso       1.00
      C326          C  0.0002363  0.1231572  0.7029461    0.00000       Uiso       1.00
      H201          H  0.0017457  0.1226860  0.7347418    0.00000       Uiso       1.00
      H202          H  0.9955176  0.1085617  0.7104549    0.00000       Uiso       1.00
      H203          H  0.0249834  0.2056271  0.6449115    0.00000       Uiso       1.00
      H204          H  0.0189619  0.1913130  0.6205755    0.00000       Uiso       1.00
      H205          H  0.0664635  0.0444734  0.6439844    0.00000       Uiso       1.00
      H206          H  0.0808104  0.9998117  0.6499511    0.00000       Uiso       1.00
      H207          H  0.9837003  0.0607285  0.6205029    0.00000       Uiso       1.00
      H208          H  0.9978571  0.0161001  0.6266755    0.00000       Uiso       1.00
      H209          H  0.9953722  0.1439195  0.5446843    0.00000       Uiso       1.00
      H210          H  0.0196833  0.1499514  0.5000321    0.00000       Uiso       1.00
      C327          C  0.0004338  0.0851258  0.6245888    0.00000       Uiso       1.00
      C328          C  0.0098676  0.0960537  0.6284521    0.00000       Uiso       1.00
      C329          C  0.0300162  0.0793127  0.6331287    0.00000       Uiso       1.00
      C330          C  0.0385648  0.0534027  0.6363795    0.00000       Uiso       1.00
      C331          C  0.0277149  0.0433671  0.6339913    0.00000       Uiso       1.00
      C332          C  0.0087241  0.0592641  0.6278654    0.00000       Uiso       1.00
      H211          H  0.9862773  0.0969052  0.6192991    0.00000       Uiso       1.00
      H212          H  0.0391027  0.0864516  0.6343577    0.00000       Uiso       1.00
      C333          C  0.9711334  0.1408805  0.6349611    0.00000       Uiso       1.00
      C334          C  0.9601877  0.1650976  0.6255548    0.00000       Uiso       1.00
      C335          C  0.9543983  0.1327842  0.6550855    0.00000       Uiso       1.00
      C336          C  0.9284779  0.1468758  0.6636358    0.00000       Uiso       1.00
      C337          C  0.9184253  0.1701422  0.6528126    0.00000       Uiso       1.00
      C338          C  0.9343156  0.1793735  0.6338470    0.00000       Uiso       1.00
      H213          H  0.9719614  0.1727725  0.6114187    0.00000       Uiso       1.00
      H214          H  0.9615499  0.1153350  0.6641517    0.00000       Uiso       1.00
      C339          C  0.0159699  0.1283113  0.5962418    0.00000       Uiso       1.00
      C340          C  0.0401898  0.1244638  0.5853083    0.00000       Uiso       1.00
      C341          C  0.0078700  0.1330125  0.5795076    0.00000       Uiso       1.00
      C342          C  0.0219592  0.1363012  0.5536025    0.00000       Uiso       1.00
      C343          C  0.0452274  0.1339275  0.5435634    0.00000       Uiso       1.00
      C344          C  0.0544633  0.1277782  0.5594514    0.00000       Uiso       1.00
      H215          H  0.0478686  0.1191566  0.5970799    0.00000       Uiso       1.00
      H216          H  0.9904193  0.1342312  0.5866483    0.00000       Uiso       1.00
      C345          C  0.0033959  0.1347547  0.6410781    0.00000       Uiso       1.00
      C346          C  0.9995551  0.1253128  0.6652812    0.00000       Uiso       1.00
      C347          C  0.0080822  0.1548910  0.6330112    0.00000       Uiso       1.00
      C348          C  0.0113647  0.1634207  0.6471153    0.00000       Uiso       1.00
      C349          C  0.0089992  0.1525634  0.6703658    0.00000       Uiso       1.00
      C350          C  0.0028641  0.1335842  0.6795692    0.00000       Uiso       1.00
      H217          H  0.9942585  0.1111654  0.6729354    0.00000       Uiso       1.00
      H218          H  0.0092942  0.1639827  0.6155753    0.00000       Uiso       1.00
      C351          C  0.9239687  0.2027656  0.6234543    0.00000       Uiso       1.00
      C352          C  0.8983465  0.2166824  0.6315665    0.00000       Uiso       1.00
      C353          C  0.9123341  0.1380954  0.6828418    0.00000       Uiso       1.00
      C354          C  0.8866967  0.1520386  0.6910574    0.00000       Uiso       1.00
      C355          C  0.0778574  0.1251425  0.5491178    0.00000       Uiso       1.00
      C356          C  0.0917716  0.1287456  0.5235111    0.00000       Uiso       1.00
      H219          H  0.8911113  0.2345621  0.6230295    0.00000       Uiso       1.00
      H220          H  0.9357574  0.2102959  0.6088699    0.00000       Uiso       1.00
      H221          H  0.9195681  0.1202951  0.6914890    0.00000       Uiso       1.00
      H222          H  0.8748893  0.1446101  0.7058387    0.00000       Uiso       1.00
      H223          H  0.0853912  0.1204133  0.5609050    0.00000       Uiso       1.00
      H224          H  0.1096529  0.1266512  0.5162858    0.00000       Uiso       1.00
      C357          C  0.3749088  0.3748168  0.1249995    0.00000       Uiso       1.00
      C358          C  0.2953096  0.2576270  0.1699718    0.00000       Uiso       1.00
      C359          C  0.2901664  0.2716537  0.1868656    0.00000       Uiso       1.00
      C360          C  0.2735492  0.2710153  0.2125888    0.00000       Uiso       1.00
      C361          C  0.2619510  0.2567810  0.2212946    0.00000       Uiso       1.00
      C362          C  0.2668698  0.2429784  0.2043537    0.00000       Uiso       1.00
      C363          C  0.2836228  0.2434753  0.1786422    0.00000       Uiso       1.00
      H225          H  0.3083641  0.2574408  0.1501080    0.00000       Uiso       1.00
      H226          H  0.2695668  0.2815393  0.2259275    0.00000       Uiso       1.00
      C364          C  0.5007655  0.3521707  0.9371386    0.00000       Uiso       1.00
      C365          C  0.5265487  0.3404455  0.9282428    0.00000       Uiso       1.00
      C366          C  0.4922666  0.3612831  0.9199017    0.00000       Uiso       1.00
      C367          C  0.5093679  0.3584222  0.8940757    0.00000       Uiso       1.00
      C368          C  0.5351985  0.3464255  0.8851796    0.00000       Uiso       1.00
      C369          C  0.5436915  0.3374606  0.9024107    0.00000       Uiso       1.00
      H227          H  0.5335681  0.3336319  0.9410967    0.00000       Uiso       1.00
      H228          H  0.4723814  0.3706201  0.9264531    0.00000       Uiso       1.00
      C370          C  0.4597720  0.3127997  0.2280721    0.00000       Uiso       1.00
      C371          C  0.4546268  0.3296730  0.2421236    0.00000       Uiso       1.00
      C372          C  0.4764085  0.2870756  0.2286730    0.00000       Uiso       1.00
      C373          C  0.4880234  0.2783490  0.2428946    0.00000       Uiso       1.00
      C374          C  0.4831024  0.2952697  0.2567219    0.00000       Uiso       1.00
      C375          C  0.4663302  0.3209819  0.2562626    0.00000       Uiso       1.00
      H229          H  0.4415578  0.3495365  0.2423388    0.00000       Uiso       1.00
      H230          H  0.4803930  0.2737523  0.2181295    0.00000       Uiso       1.00
      C376          C  0.2489317  0.5626437  0.1479207    0.00000       Uiso       1.00
      C377          C  0.2231506  0.5715225  0.1596589    0.00000       Uiso       1.00
      C378          C  0.2574114  0.5798939  0.1388336    0.00000       Uiso       1.00
      C379          C  0.2402932  0.6057158  0.1417322    0.00000       Uiso       1.00
      C380          C  0.2144650  0.6145943  0.1537419    0.00000       Uiso       1.00
      C381          C  0.2059911  0.5973502  0.1626815    0.00000       Uiso       1.00
      H231          H  0.2161456  0.5586586  0.1664536    0.00000       Uiso       1.00
      H232          H  0.2772946  0.5733562  0.1294871    0.00000       Uiso       1.00
       N33          N  0.4997197  0.3682667  0.8762171    0.00000       Uiso       1.00
      H233          H  0.5141143  0.3648180  0.8585788    0.00000       Uiso       1.00
      H234          H  0.4878713  0.3867842  0.8786765    0.00000       Uiso       1.00
       N34          N  0.5056990  0.2508549  0.2430778    0.00000       Uiso       1.00
      H235          H  0.5124123  0.2476082  0.2540109    0.00000       Uiso       1.00
      H236          H  0.5199234  0.2451178  0.2255808    0.00000       Uiso       1.00
       N35          N  0.2499212  0.6235887  0.1319139    0.00000       Uiso       1.00
      H237          H  0.2355161  0.6412221  0.1353884    0.00000       Uiso       1.00
      H238          H  0.2617579  0.6211565  0.1133929    0.00000       Uiso       1.00
       N36          N  0.2442958  0.2565575  0.2487883    0.00000       Uiso       1.00
      H239          H  0.2375928  0.2456197  0.2520190    0.00000       Uiso       1.00
      H240          H  0.2300627  0.2740462  0.2545510    0.00000       Uiso       1.00
       N37          N  0.2894033  0.2288355  0.1601563    0.00000       Uiso       1.00
      H241          H  0.2796813  0.2197857  0.1691554    0.00000       Uiso       1.00
      H242          H  0.3077914  0.2163856  0.1514353    0.00000       Uiso       1.00
       N38          N  0.4605469  0.3394464  0.2709295    0.00000       Uiso       1.00
      H243          H  0.4702821  0.3304340  0.2799661    0.00000       Uiso       1.00
      H244          H  0.4421616  0.3481492  0.2833920    0.00000       Uiso       1.00
       N39          N  0.5710437  0.3247817  0.8935380    0.00000       Uiso       1.00
      H245          H  0.5807961  0.3240797  0.8747728    0.00000       Uiso       1.00
      H246          H  0.5767782  0.3073398  0.9004637    0.00000       Uiso       1.00
       N40          N  0.1786417  0.6062045  0.1753734    0.00000       Uiso       1.00
      H247          H  0.1688761  0.6249685  0.1761028    0.00000       Uiso       1.00
      H248          H  0.1729251  0.5992532  0.1928051    0.00000       Uiso       1.00
      C382          C  0.3398536  0.2920669  0.1501358    0.00000       Uiso       1.00
      C383          C  0.3265970  0.3153961  0.1609369    0.00000       Uiso       1.00
      C384          C  0.3015344  0.3244832  0.1801475    0.00000       Uiso       1.00
      C385          C  0.2898717  0.3103000  0.1883587    0.00000       Uiso       1.00
      C386          C  0.3028000  0.2868624  0.1777183    0.00000       Uiso       1.00
      C387          C  0.3279604  0.2780796  0.1584524    0.00000       Uiso       1.00
      H249          H  0.3385312  0.2601193  0.1501515    0.00000       Uiso       1.00
      H250          H  0.2705583  0.3177609  0.2028552    0.00000       Uiso       1.00
      C388          C  0.4465986  0.3625738  0.0172934    0.00000       Uiso       1.00
      C389          C  0.4674728  0.3650520  0.0072131    0.00000       Uiso       1.00
      C390          C  0.4433377  0.3567312  0.0013320    0.00000       Uiso       1.00
      C391          C  0.4609478  0.3533120  0.9754912    0.00000       Uiso       1.00
      C392          C  0.4820977  0.3556230  0.9649742    0.00000       Uiso       1.00
      C393          C  0.4850121  0.3615075  0.9813377    0.00000       Uiso       1.00
      H251          H  0.5007032  0.3637943  0.9739422    0.00000       Uiso       1.00
      H252          H  0.4582846  0.3485018  0.9636492    0.00000       Uiso       1.00
      C394          C  0.4232905  0.3387925  0.1843677    0.00000       Uiso       1.00
      C395          C  0.4100429  0.3495593  0.2077128    0.00000       Uiso       1.00
      C396          C  0.4483605  0.3195953  0.1752525    0.00000       Uiso       1.00
      C397          C  0.4600395  0.3113633  0.1894237    0.00000       Uiso       1.00
      C398          C  0.4471206  0.3219693  0.2128768    0.00000       Uiso       1.00
      C399          C  0.4219525  0.3412223  0.2216879    0.00000       Uiso       1.00
      H253          H  0.4113888  0.3494968  0.2396603    0.00000       Uiso       1.00
      H254          H  0.4793582  0.2968778  0.1819416    0.00000       Uiso       1.00
      C400          C  0.3031491  0.4825050  0.1374001    0.00000       Uiso       1.00
      C401          C  0.2822657  0.4925891  0.1349367    0.00000       Uiso       1.00
      C402          C  0.3064027  0.4984579  0.1432659    0.00000       Uiso       1.00
      C403          C  0.2887766  0.5242928  0.1467234    0.00000       Uiso       1.00
      C404          C  0.2676174  0.5348132  0.1444278    0.00000       Uiso       1.00
      C405          C  0.2647105  0.5184583  0.1385194    0.00000       Uiso       1.00
      H255          H  0.2490123  0.5258572  0.1362435    0.00000       Uiso       1.00
      H256          H  0.2914348  0.5361277  0.1515508    0.00000       Uiso       1.00
      C406          C  0.3649181  0.2831252  0.1312488    0.00000       Uiso       1.00
      C407          C  0.3766073  0.2970539  0.1231569    0.00000       Uiso       1.00
      C408          C  0.2886207  0.3476820  0.1908340    0.00000       Uiso       1.00
      C409          C  0.3002988  0.3616372  0.1826388    0.00000       Uiso       1.00
      C410          C  0.4612651  0.3089429  0.1520380    0.00000       Uiso       1.00
      C411          C  0.4495707  0.3171586  0.1380948    0.00000       Uiso       1.00
      C412          C  0.3273838  0.4881618  0.1455009    0.00000       Uiso       1.00
      C413          C  0.3448133  0.4625396  0.1420121    0.00000       Uiso       1.00
      C414          C  0.2794829  0.4764891  0.1287457    0.00000       Uiso       1.00
      C415          C  0.2970003  0.4508824  0.1251425    0.00000       Uiso       1.00
      H257          H  0.2636960  0.4837144  0.1266515    0.00000       Uiso       1.00
      H258          H  0.2941956  0.4390952  0.1204136    0.00000       Uiso       1.00
      H259          H  0.3303664  0.4999682  0.1499499    0.00000       Uiso       1.00
      H260          H  0.3607090  0.4553159  0.1439181    0.00000       Uiso       1.00
      H261          H  0.2897258  0.3794248  0.1913121    0.00000       Uiso       1.00
      H262          H  0.2693902  0.3550889  0.2056261    0.00000       Uiso       1.00
      H263          H  0.3959210  0.2895450  0.1085615    0.00000       Uiso       1.00
      H264          H  0.3755692  0.2652580  0.1226857    0.00000       Uiso       1.00
      H265          H  0.4601372  0.3085113  0.1202944    0.00000       Uiso       1.00
      H266          H  0.4805010  0.2941616  0.1446095    0.00000       Uiso       1.00
      C416          C  0.3751323  0.3347189  0.1253123    0.00000       Uiso       1.00
      C417          C  0.3618501  0.3589221  0.1347541    0.00000       Uiso       1.00
      C418          C  0.3370275  0.3669889  0.1548904    0.00000       Uiso       1.00
      C419          C  0.3252153  0.3528848  0.1634201    0.00000       Uiso       1.00
      C420          C  0.3384382  0.3296343  0.1525628    0.00000       Uiso       1.00
      C421          C  0.3635525  0.3204308  0.1335837    0.00000       Uiso       1.00
      H267          H  0.3945762  0.3270646  0.1111650    0.00000       Uiso       1.00
      H268          H  0.3267239  0.3844249  0.1639821    0.00000       Uiso       1.00
      C422          C  0.3940793  0.3715480  0.0960532    0.00000       Uiso       1.00
      C423          C  0.4144410  0.3754114  0.0851253    0.00000       Uiso       1.00
      C424          C  0.3906718  0.3668714  0.0793122    0.00000       Uiso       1.00
      C425          C  0.4080331  0.3636206  0.0534022    0.00000       Uiso       1.00
      C426          C  0.4289186  0.3660088  0.0433667    0.00000       Uiso       1.00
      C427          C  0.4320124  0.3721347  0.0592636    0.00000       Uiso       1.00
      H269          H  0.4168175  0.3807012  0.0969047    0.00000       Uiso       1.00
      H270          H  0.3744464  0.3656423  0.0864511    0.00000       Uiso       1.00
      C428          C  0.3879863  0.3650390  0.1408800    0.00000       Uiso       1.00
      C429          C  0.3747149  0.3744453  0.1650971    0.00000       Uiso       1.00
      C430          C  0.4128177  0.3449147  0.1327837    0.00000       Uiso       1.00
      C431          C  0.4246465  0.3363643  0.1468753    0.00000       Uiso       1.00
      C432          C  0.4114327  0.3471874  0.1701417    0.00000       Uiso       1.00
      C433          C  0.3863112  0.3661530  0.1793730    0.00000       Uiso       1.00
      H271          H  0.3552662  0.3885812  0.1727720    0.00000       Uiso       1.00
      H272          H  0.4231153  0.3358485  0.1153344    0.00000       Uiso       1.00
      C434          C  0.3557195  0.4037584  0.1283107    0.00000       Uiso       1.00
      C435          C  0.3353469  0.4146919  0.1244635    0.00000       Uiso       1.00
      C436          C  0.3591182  0.4204926  0.1330117    0.00000       Uiso       1.00
      C437          C  0.3417404  0.4463978  0.1363004    0.00000       Uiso       1.00
      C438          C  0.3208457  0.4564368  0.1339269    0.00000       Uiso       1.00
      C439          C  0.3177590  0.4405488  0.1277779    0.00000       Uiso       1.00
      H273          H  0.3329751  0.4029203  0.1191565    0.00000       Uiso       1.00
      H274          H  0.3753498  0.4133518  0.1342304    0.00000       Uiso       1.00
      C440          C  0.4527615  0.3747853  0.0489340    0.00000       Uiso       1.00
      C441          C  0.4702627  0.3712196  0.0233220    0.00000       Uiso       1.00
      C442          C  0.4049526  0.3579324  0.0372520    0.00000       Uiso       1.00
      C443          C  0.4223659  0.3544811  0.0116248    0.00000       Uiso       1.00
      C444          C  0.3732658  0.3765455  0.2027652    0.00000       Uiso       1.00
      C445          C  0.3849712  0.3684332  0.2166821    0.00000       Uiso       1.00
      H275          H  0.4860429  0.3733244  0.0160998    0.00000       Uiso       1.00
      H276          H  0.4555714  0.3794971  0.0607281    0.00000       Uiso       1.00
      H277          H  0.3890637  0.3560157  0.0444729    0.00000       Uiso       1.00
      H278          H  0.4193783  0.3500497  0.9998109    0.00000       Uiso       1.00
      H279          H  0.3539469  0.3911298  0.2102955    0.00000       Uiso       1.00
      H280          H  0.3743269  0.3769700  0.2345618    0.00000       Uiso       1.00
      C446          C  0.2499995  0.0007318  0.0000019    0.00000       Uiso       1.00
      C447          C  0.2155697  0.0801947  0.1517327    0.00000       Uiso       1.00
      C448          C  0.2272912  0.0853654  0.1259656    0.00000       Uiso       1.00
      C449          C  0.2363914  0.1019955  0.1174977    0.00000       Uiso       1.00
      C450          C  0.2335220  0.1135790  0.1346139    0.00000       Uiso       1.00
      C451          C  0.2215289  0.1086325  0.1604284    0.00000       Uiso       1.00
      C452          C  0.2125763  0.0918667  0.1688903    0.00000       Uiso       1.00
      H281          H  0.2087657  0.0671301  0.1587279    0.00000       Uiso       1.00
      H282          H  0.2457254  0.1059993  0.0976251    0.00000       Uiso       1.00
      C453          C  0.1880746  0.8747674  0.0846353    0.00000       Uiso       1.00
      C454          C  0.2049667  0.8490003  0.0794647    0.00000       Uiso       1.00
      C455          C  0.1623443  0.8832353  0.1012654    0.00000       Uiso       1.00
      C456          C  0.1536302  0.8661190  0.1128489    0.00000       Uiso       1.00
      C457          C  0.1705698  0.8403046  0.1079024    0.00000       Uiso       1.00
      C458          C  0.1962881  0.8318427  0.0911366    0.00000       Uiso       1.00
      H283          H  0.2248354  0.8420050  0.0664001    0.00000       Uiso       1.00
      H284          H  0.1490065  0.9031079  0.1052692    0.00000       Uiso       1.00
      C459          C  0.4378890  0.9160979  0.8740376    0.00000       Uiso       1.00
      C460          C  0.4467639  0.9212686  0.8482705    0.00000       Uiso       1.00
      C461          C  0.4551513  0.8994679  0.8825056    0.00000       Uiso       1.00
      C462          C  0.4809816  0.8878843  0.8653893    0.00000       Uiso       1.00
      C463          C  0.4898566  0.8928308  0.8395749    0.00000       Uiso       1.00
      C464          C  0.4726001  0.9095966  0.8311129    0.00000       Uiso       1.00
      H285          H  0.4338905  0.9343332  0.8412752    0.00000       Uiso       1.00
      H286          H  0.4486165  0.8954640  0.9023781    0.00000       Uiso       1.00
      C465          C  0.1467446  0.1266960  0.9153672    0.00000       Uiso       1.00
      C466          C  0.1326990  0.1524631  0.9205379    0.00000       Uiso       1.00
      C467          C  0.1461123  0.1182280  0.8987371    0.00000       Uiso       1.00
      C468          C  0.1318655  0.1353443  0.8871536    0.00000       Uiso       1.00
      C469          C  0.1180441  0.1611587  0.8921000    0.00000       Uiso       1.00
      C470          C  0.1185347  0.1696207  0.9088659    0.00000       Uiso       1.00
      H287          H  0.1325078  0.1594583  0.9336025    0.00000       Uiso       1.00
      H288          H  0.1566509  0.0983554  0.8947334    0.00000       Uiso       1.00
       N41          N  0.1261292  0.8757343  0.1305183    0.00000       Uiso       1.00
      H289          H  0.1228929  0.8613324  0.1372082    0.00000       Uiso       1.00
      H290          H  0.1167198  0.8875825  0.1214034    0.00000       Uiso       1.00
       N42          N  0.4988675  0.8702148  0.8750046    0.00000       Uiso       1.00
      H291          H  0.5165058  0.8635249  0.8606026    0.00000       Uiso       1.00
      H292          H  0.4956057  0.8559813  0.8840101    0.00000       Uiso       1.00
       N43          N  0.1316491  0.1257290  0.8694841    0.00000       Uiso       1.00
      H293          H  0.1207007  0.1401310  0.8627943    0.00000       Uiso       1.00
      H294          H  0.1249731  0.1138808  0.8785989    0.00000       Uiso       1.00
       N44          N  0.2433536  0.1312485  0.1249987    0.00000       Uiso       1.00
      H295          H  0.2399000  0.1379383  0.1394007    0.00000       Uiso       1.00
      H296          H  0.2348638  0.1454819  0.1159932    0.00000       Uiso       1.00
       N45          N  0.1999016  0.0860569  0.1962248    0.00000       Uiso       1.00
      H297          H  0.1991926  0.0957713  0.2059909    0.00000       Uiso       1.00
      H298          H  0.2095798  0.0676739  0.1989985    0.00000       Uiso       1.00
       N46          N  0.4814501  0.9154063  0.8037784    0.00000       Uiso       1.00
      H299          H  0.5002213  0.9056921  0.7940124    0.00000       Uiso       1.00
      H300          H  0.4755189  0.9337894  0.8010047    0.00000       Uiso       1.00
       N47          N  0.2147726  0.8045081  0.0853269    0.00000       Uiso       1.00
      H301          H  0.2057674  0.7947420  0.0950412    0.00000       Uiso       1.00
      H302          H  0.2274491  0.7987794  0.0900959    0.00000       Uiso       1.00
       N48          N  0.1038749  0.1969552  0.9146757    0.00000       Uiso       1.00
      H303          H  0.0948180  0.2067213  0.9049613    0.00000       Uiso       1.00
      H304          H  0.1155917  0.2026839  0.9099067    0.00000       Uiso       1.00
      C471          C  0.2402092  0.0357119  0.0926101    0.00000       Uiso       1.00
      C472          C  0.2377212  0.0489821  0.0717535    0.00000       Uiso       1.00
      C473          C  0.2318603  0.0740427  0.0685250    0.00000       Uiso       1.00
      C474          C  0.2284321  0.0856901  0.0861493    0.00000       Uiso       1.00
      C475          C  0.2307526  0.0727480  0.1072818    0.00000       Uiso       1.00
      C476          C  0.2366556  0.0475897  0.1101638    0.00000       Uiso       1.00
      H305          H  0.2389501  0.0370092  0.1258410    0.00000       Uiso       1.00
      H306          H  0.2236078  0.1050019  0.0835108    0.00000       Uiso       1.00
      C477          C  0.2140278  0.9289795  0.0482521    0.00000       Uiso       1.00
      C478          C  0.2248100  0.9081229  0.0349820    0.00000       Uiso       1.00
      C479          C  0.1948280  0.9322081  0.0733128    0.00000       Uiso       1.00
      C480          C  0.1866090  0.9145837  0.0849600    0.00000       Uiso       1.00
      C481          C  0.1972305  0.8934512  0.0720180    0.00000       Uiso       1.00
      C482          C  0.2164858  0.8905693  0.0468598    0.00000       Uiso       1.00
      H307          H  0.2247719  0.8748919  0.0362792    0.00000       Uiso       1.00
      H308          H  0.1721214  0.9172222  0.1042718    0.00000       Uiso       1.00
      C483          C  0.3577237  0.9524812  0.9282495    0.00000       Uiso       1.00
      C484          C  0.3677980  0.9657514  0.9073931    0.00000       Uiso       1.00
      C485          C  0.3736948  0.9274205  0.9314780    0.00000       Uiso       1.00
      C486          C  0.3995382  0.9157732  0.9138537    0.00000       Uiso       1.00
      C487          C  0.4100491  0.9287153  0.8927214    0.00000       Uiso       1.00
      C488          C  0.3936759  0.9538736  0.8898395    0.00000       Uiso       1.00
      H309          H  0.4010671  0.9644542  0.8741623    0.00000       Uiso       1.00
      H310          H  0.4113872  0.8964613  0.9164922    0.00000       Uiso       1.00
      C489          C  0.1905267  0.0724838  0.9517505    0.00000       Uiso       1.00
      C490          C  0.1671823  0.0933405  0.9650207    0.00000       Uiso       1.00
      C491          C  0.1996160  0.0692552  0.9266900    0.00000       Uiso       1.00
      C492          C  0.1854199  0.0868796  0.9150426    0.00000       Uiso       1.00
      C493          C  0.1619670  0.1080121  0.9279847    0.00000       Uiso       1.00
      C494          C  0.1531822  0.1108942  0.9531428    0.00000       Uiso       1.00
      H311          H  0.1352105  0.1265715  0.9637233    0.00000       Uiso       1.00
      H312          H  0.1928827  0.0842410  0.8957309    0.00000       Uiso       1.00
      C495          C  0.2463951  0.0106500  0.0953678    0.00000       Uiso       1.00
      C496          C  0.2499696  0.9989756  0.0778521    0.00000       Uiso       1.00
      C497          C  0.2296007  0.0869702  0.0475704    0.00000       Uiso       1.00
      C498          C  0.2330606  0.0753074  0.0301426    0.00000       Uiso       1.00
      C499          C  0.3634081  0.9144930  0.9524324    0.00000       Uiso       1.00
      C500          C  0.3377774  0.9261558  0.9698602    0.00000       Uiso       1.00
      C501          C  0.2228302  0.0483006  0.9137626    0.00000       Uiso       1.00
      C502          C  0.2367980  0.0308728  0.9254255    0.00000       Uiso       1.00
      C503          C  0.1582387  0.0960983  0.9900825    0.00000       Uiso       1.00
      C504          C  0.1721797  0.0785821  0.0017573    0.00000       Uiso       1.00
      H313          H  0.1403596  0.1118639  0.0007445    0.00000       Uiso       1.00
      H314          H  0.1646688  0.0813673  0.0210695    0.00000       Uiso       1.00
      H315          H  0.2302391  0.0453375  0.8945332    0.00000       Uiso       1.00
      H316          H  0.2545972  0.0149978  0.9148422    0.00000       Uiso       1.00
      H317          H  0.2311362  0.0858907  0.0142677    0.00000       Uiso       1.00
      H318          H  0.2251547  0.1061997  0.0446073    0.00000       Uiso       1.00
      H319          H  0.2546955  0.9796632  0.0806371    0.00000       Uiso       1.00
      H320          H  0.2485081  0.9999882  0.1111338    0.00000       Uiso       1.00
      H321          H  0.3305615  0.9155725  0.9857349    0.00000       Uiso       1.00
      H322          H  0.3752285  0.8952635  0.9553954    0.00000       Uiso       1.00
      C505          C  0.2505941  0.0004797  0.0395343    0.00000       Uiso       1.00
      C506          C  0.2467211  0.0137740  0.0191891    0.00000       Uiso       1.00
      C507          C  0.2420264  0.0385957  0.0158145    0.00000       Uiso       1.00
      C508          C  0.2387670  0.0503928  0.0331907    0.00000       Uiso       1.00
      C509          C  0.2411649  0.0371564  0.0540586    0.00000       Uiso       1.00
      C510          C  0.2473091  0.0120442  0.0571202    0.00000       Uiso       1.00
      H323          H  0.2558984  0.9810373  0.0418862    0.00000       Uiso       1.00
      H324          H  0.2407903  0.0489108  0.9996023    0.00000       Uiso       1.00
      C511          C  0.2402359  0.9815438  0.0130442    0.00000       Uiso       1.00
      C512          C  0.2496576  0.9611992  0.9997489    0.00000       Uiso       1.00
      C513          C  0.2201090  0.9849185  0.0378658    0.00000       Uiso       1.00
      C514          C  0.2115713  0.9675422  0.0496628    0.00000       Uiso       1.00
      C515          C  0.2224098  0.9466744  0.0364265    0.00000       Uiso       1.00
      C516          C  0.2413777  0.9436129  0.0113144    0.00000       Uiso       1.00
      H325          H  0.2637953  0.9588473  0.9803071    0.00000       Uiso       1.00
      H326          H  0.2110307  0.0011304  0.0481804    0.00000       Uiso       1.00
      C517          C  0.2789513  0.9876893  0.9808137    0.00000       Uiso       1.00
      C518          C  0.2898748  0.0009843  0.9604688    0.00000       Uiso       1.00
      C519          C  0.2957036  0.9628676  0.9841883    0.00000       Uiso       1.00
      C520          C  0.3216175  0.9510704  0.9668121    0.00000       Uiso       1.00
      C521          C  0.3316469  0.9643069  0.9459443    0.00000       Uiso       1.00
      C522          C  0.3157406  0.9894191  0.9428829    0.00000       Uiso       1.00
      H327          H  0.2780890  0.0204261  0.9581169    0.00000       Uiso       1.00
      H328          H  0.2885699  0.9525524  0.0004004    0.00000       Uiso       1.00
      C523          C  0.2340911  0.0199195  0.9869587    0.00000       Uiso       1.00
      C524          C  0.2098726  0.0402642  0.0002539    0.00000       Uiso       1.00
      C525          C  0.2421604  0.0165448  0.9621370    0.00000       Uiso       1.00
      C526          C  0.2280436  0.0339210  0.9503400    0.00000       Uiso       1.00
      C527          C  0.2047779  0.0547890  0.9635763    0.00000       Uiso       1.00
      C528          C  0.1955722  0.0578506  0.9886883    0.00000       Uiso       1.00
      H329          H  0.2022167  0.0426162  0.0196957    0.00000       Uiso       1.00
      H330          H  0.2596082  0.0003335  0.9518225    0.00000       Uiso       1.00
      C529          C  0.2517860  0.9228814  0.9982454    0.00000       Uiso       1.00
      C530          C  0.2436860  0.9053652  0.0099201    0.00000       Uiso       1.00
      C531          C  0.1923632  0.9705904  0.0745774    0.00000       Uiso       1.00
      C532          C  0.1841602  0.9531626  0.0862402    0.00000       Uiso       1.00
      C533          C  0.3260643  0.0024879  0.9221512    0.00000       Uiso       1.00
      C534          C  0.3516798  0.9908134  0.9046354    0.00000       Uiso       1.00
      H331          H  0.2522350  0.8895996  0.9992581    0.00000       Uiso       1.00
      H332          H  0.2663724  0.9200963  0.9789331    0.00000       Uiso       1.00
      H333          H  0.1837043  0.9864653  0.0851607    0.00000       Uiso       1.00
      H334          H  0.1693767  0.9561257  0.1054696    0.00000       Uiso       1.00
      H335          H  0.3142629  0.0218002  0.9193662    0.00000       Uiso       1.00
      H336          H  0.3588971  0.0014753  0.8888695    0.00000       Uiso       1.00
      C535          C  0.6910757  0.6636366  0.2753714    0.00000       Uiso       1.00
      C536          C  0.6965588  0.6531001  0.2549099    0.00000       Uiso       1.00
      C537          C  0.6657622  0.6437927  0.3047393    0.00000       Uiso       1.00
      C538          C  0.6719843  0.6327950  0.2853751    0.00000       Uiso       1.00
      C539          C  0.6871141  0.6370031  0.2605928    0.00000       Uiso       1.00
      C540          C  0.6748655  0.6590919  0.3004544    0.00000       Uiso       1.00
      H337          H  0.6912023  0.6272526  0.2466705    0.00000       Uiso       1.00
      H338          H  0.6686590  0.6671352  0.3169189    0.00000       Uiso       1.00
        B1          B  0.7183375  0.7273748  0.2855565    0.00000       Uiso       1.00
        O1          O  0.6501825  0.6377209  0.3281157    0.00000       Uiso       1.00
        O2          O  0.7571946  0.6702166  0.1542349    0.00000       Uiso       1.00
      C541          C  0.7113929  0.6585714  0.2295974    0.00000       Uiso       1.00
      C542          C  0.7219483  0.6735348  0.2245510    0.00000       Uiso       1.00
      C543          C  0.7311966  0.6545383  0.1844556    0.00000       Uiso       1.00
      C544          C  0.7422130  0.6676663  0.1796852    0.00000       Uiso       1.00
      C545          C  0.7380342  0.6773008  0.1990190    0.00000       Uiso       1.00
      C546          C  0.7159072  0.6497169  0.2088480    0.00000       Uiso       1.00
      H339          H  0.7477979  0.6871247  0.1933609    0.00000       Uiso       1.00
      H340          H  0.7078474  0.6394709  0.2106817    0.00000       Uiso       1.00
        B2          B  0.6476672  0.6211321  0.3205499    0.00000       Uiso       1.00
        O3          O  0.7372400  0.6467586  0.1628100    0.00000       Uiso       1.00
        O4          O  0.7049500  0.7135004  0.3022883    0.00000       Uiso       1.00
      C547          C  0.7165065  0.6839947  0.2448532    0.00000       Uiso       1.00
      C548          C  0.7015544  0.6784820  0.2703603    0.00000       Uiso       1.00
      C549          C  0.7205870  0.7092997  0.2606281    0.00000       Uiso       1.00
      C550          C  0.7074706  0.7030503  0.2847597    0.00000       Uiso       1.00
      C551          C  0.6978189  0.6879095  0.2902073    0.00000       Uiso       1.00
      C552          C  0.7253794  0.7002146  0.2405217    0.00000       Uiso       1.00
      H341          H  0.6880064  0.6837997  0.3097847    0.00000       Uiso       1.00
      H342          H  0.7356181  0.7064421  0.2222264    0.00000       Uiso       1.00
        B3          B  0.7538325  0.6568342  0.1437149    0.00000       Uiso       1.00
        O5          O  0.7283871  0.7248862  0.2588986    0.00000       Uiso       1.00
        O6          O  0.6615195  0.6178000  0.2932954    0.00000       Uiso       1.00
      C553          C  0.6300842  0.3363632  0.7246282    0.00000       Uiso       1.00
      C554          C  0.6045693  0.3468997  0.7450897    0.00000       Uiso       1.00
      C555          C  0.6142946  0.3562071  0.6952602    0.00000       Uiso       1.00
      C556          C  0.5901549  0.3672047  0.7146245    0.00000       Uiso       1.00
      C557          C  0.5847104  0.3629967  0.7394067    0.00000       Uiso       1.00
      C558          C  0.6344123  0.3409078  0.6995452    0.00000       Uiso       1.00
      H343          H  0.5651259  0.3727472  0.7533290    0.00000       Uiso       1.00
      H344          H  0.6527134  0.3328646  0.6830807    0.00000       Uiso       1.00
        B4          B  0.7312690  0.2726250  0.7144434    0.00000       Uiso       1.00
        O7          O  0.6160197  0.3622789  0.6718838    0.00000       Uiso       1.00
        O8          O  0.5816467  0.3297832  0.8457647    0.00000       Uiso       1.00
      C559          C  0.5995622  0.3414284  0.7704022    0.00000       Uiso       1.00
      C560          C  0.6200346  0.3264650  0.7754486    0.00000       Uiso       1.00
      C561          C  0.5701911  0.3454614  0.8155439    0.00000       Uiso       1.00
      C562          C  0.5895651  0.3323334  0.8203144    0.00000       Uiso       1.00
      C563          C  0.6143544  0.3226990  0.8009807    0.00000       Uiso       1.00
      C564          C  0.5744726  0.3502829  0.7911516    0.00000       Uiso       1.00
      H345          H  0.6282839  0.3128751  0.8066388    0.00000       Uiso       1.00
      H346          H  0.5580006  0.3605289  0.7893178    0.00000       Uiso       1.00
        B5          B  0.5893496  0.3788678  0.6794496    0.00000       Uiso       1.00
        O9          O  0.5468091  0.3532412  0.8371896    0.00000       Uiso       1.00
       O10          O  0.7207389  0.2864994  0.6977115    0.00000       Uiso       1.00
      C565          C  0.6453547  0.3160051  0.7551466    0.00000       Uiso       1.00
      C566          C  0.6503971  0.3215178  0.7296394    0.00000       Uiso       1.00
      C567          C  0.6905151  0.2907001  0.7393717    0.00000       Uiso       1.00
      C568          C  0.6952809  0.2969495  0.7152401    0.00000       Uiso       1.00
      C569          C  0.6759361  0.3120903  0.7097924    0.00000       Uiso       1.00
      C570          C  0.6661161  0.2997852  0.7594780    0.00000       Uiso       1.00
      H347          H  0.6815911  0.3162001  0.6902151    0.00000       Uiso       1.00
      H348          H  0.6642870  0.2935578  0.7777734    0.00000       Uiso       1.00
        B6          B  0.5543823  0.3431655  0.8562847    0.00000       Uiso       1.00
       O11          O  0.7121722  0.2751136  0.7411013    0.00000       Uiso       1.00
       O12          O  0.5726155  0.3821997  0.7067041    0.00000       Uiso       1.00
      C571          C  0.5386407  0.2448530  0.3160047    0.00000       Uiso       1.00
      C572          C  0.5280856  0.2703602  0.3215174    0.00000       Uiso       1.00
      C573          C  0.5187853  0.2606279  0.2906997    0.00000       Uiso       1.00
      C574          C  0.5077700  0.2847596  0.2969491    0.00000       Uiso       1.00
      C575          C  0.5119741  0.2902072  0.3120899    0.00000       Uiso       1.00
      C576          C  0.5340993  0.2405215  0.2997848    0.00000       Uiso       1.00
      H349          H  0.5022092  0.3097846  0.3161997    0.00000       Uiso       1.00
      H350          H  0.5421559  0.2222262  0.2935574    0.00000       Uiso       1.00
        B7          B  0.6024528  0.1437147  0.3431652    0.00000       Uiso       1.00
       O13          O  0.5127147  0.2588984  0.2751132    0.00000       Uiso       1.00
       O14          O  0.5451853  0.2932954  0.3821994    0.00000       Uiso       1.00
      C577          C  0.5335532  0.2753713  0.3363628    0.00000       Uiso       1.00
      C578          C  0.5485316  0.2549098  0.3468994    0.00000       Uiso       1.00
      C579          C  0.5294988  0.3047393  0.3562067    0.00000       Uiso       1.00
      C580          C  0.5426409  0.2853750  0.3672044    0.00000       Uiso       1.00
      C581          C  0.5522935  0.2605927  0.3629963    0.00000       Uiso       1.00
      C582          C  0.5246804  0.3004543  0.3409075    0.00000       Uiso       1.00
      H351          H  0.5621275  0.2466704  0.3727469    0.00000       Uiso       1.00
      H352          H  0.5144224  0.3169188  0.3328643    0.00000       Uiso       1.00
        B8          B  0.4961064  0.2855563  0.2726246    0.00000       Uiso       1.00
       O15          O  0.5217020  0.3281157  0.3622785    0.00000       Uiso       1.00
       O16          O  0.5885708  0.1542347  0.3297829    0.00000       Uiso       1.00
      C583          C  0.5590100  0.2295973  0.3414281    0.00000       Uiso       1.00
      C584          C  0.5535010  0.2245508  0.3264647    0.00000       Uiso       1.00
      C585          C  0.5843480  0.1844554  0.3454611    0.00000       Uiso       1.00
      C586          C  0.5781021  0.1796850  0.3323331    0.00000       Uiso       1.00
      C587          C  0.5629471  0.1990188  0.3226987    0.00000       Uiso       1.00
      C588          C  0.5752451  0.2088478  0.3502826    0.00000       Uiso       1.00
      H353          H  0.5588415  0.1933607  0.3128748    0.00000       Uiso       1.00
      H354          H  0.5814712  0.2106815  0.3605285    0.00000       Uiso       1.00
        B9          B  0.5317832  0.3205499  0.3788674    0.00000       Uiso       1.00
       O17          O  0.5999504  0.1628098  0.3532408    0.00000       Uiso       1.00
       O18          O  0.4927621  0.3022881  0.2864990    0.00000       Uiso       1.00
      C589          C  0.0994996  0.7551469  0.6839937    0.00000       Uiso       1.00
      C590          C  0.1199643  0.7296396  0.6784810    0.00000       Uiso       1.00
      C591          C  0.0701142  0.7393720  0.7092986    0.00000       Uiso       1.00
      C592          C  0.0894799  0.7152402  0.7030492    0.00000       Uiso       1.00
      C593          C  0.1142724  0.7097926  0.6879084    0.00000       Uiso       1.00
      C594          C  0.0744068  0.7594783  0.7002135    0.00000       Uiso       1.00
      H355          H  0.1281947  0.6902152  0.6837987    0.00000       Uiso       1.00
      H356          H  0.0579406  0.7777737  0.7064409    0.00000       Uiso       1.00
       B10          B  0.0893339  0.8562852  0.6568333    0.00000       Uiso       1.00
       O19          O  0.0467276  0.7411014  0.7248850    0.00000       Uiso       1.00
       O20          O  0.2206811  0.7067044  0.6177992    0.00000       Uiso       1.00
      C595          C  0.1452885  0.7246286  0.6636356    0.00000       Uiso       1.00
      C596          C  0.1503418  0.7450901  0.6530991    0.00000       Uiso       1.00
      C597          C  0.1904459  0.6952605  0.6437918    0.00000       Uiso       1.00
      C598          C  0.1952213  0.7146248  0.6327942    0.00000       Uiso       1.00
      C599          C  0.1758836  0.7394071  0.6370022    0.00000       Uiso       1.00
      C600          C  0.1660433  0.6995455  0.6590911    0.00000       Uiso       1.00
      H357          H  0.1815458  0.7533295  0.6272517    0.00000       Uiso       1.00
      H358          H  0.1642067  0.6830809  0.6671342    0.00000       Uiso       1.00
       B11          B  0.0542886  0.7144435  0.7273736    0.00000       Uiso       1.00
       O21          O  0.2120972  0.6718841  0.6377200    0.00000       Uiso       1.00
       O22          O  0.0725895  0.8457652  0.6702155    0.00000       Uiso       1.00
      C601          C  0.1300365  0.7704026  0.6585703    0.00000       Uiso       1.00
      C602          C  0.1045176  0.7754490  0.6735338    0.00000       Uiso       1.00
      C603          C  0.1142656  0.8155444  0.6545374    0.00000       Uiso       1.00
      C604          C  0.0901214  0.8203148  0.6676653    0.00000       Uiso       1.00
      C605          C  0.0846658  0.8009811  0.6772997    0.00000       Uiso       1.00
      C606          C  0.1343765  0.7911520  0.6497160    0.00000       Uiso       1.00
      H359          H  0.0650782  0.8066391  0.6871235    0.00000       Uiso       1.00
      H360          H  0.1526823  0.7893183  0.6394700    0.00000       Uiso       1.00
       B12          B  0.2312015  0.6794499  0.6211312    0.00000       Uiso       1.00
       O23          O  0.1160021  0.8371900  0.6467577    0.00000       Uiso       1.00
       O24          O  0.0815505  0.6977118  0.7134992    0.00000       Uiso       1.00
      C607          C  0.1049668  0.7453153  0.1836229    0.00000       Uiso       1.00
      C608          C  0.0999017  0.7708305  0.1781475    0.00000       Uiso       1.00
      C609          C  0.0598135  0.7610532  0.2089508    0.00000       Uiso       1.00
      C610          C  0.0550254  0.7851940  0.2027367    0.00000       Uiso       1.00
      C611          C  0.0743551  0.7906637  0.1876040    0.00000       Uiso       1.00
      C612          C  0.0842205  0.7409601  0.1998364    0.00000       Uiso       1.00
      H361          H  0.0686828  0.8102472  0.1835228    0.00000       Uiso       1.00
      H362          H  0.0860676  0.7226557  0.2060370    0.00000       Uiso       1.00
       B13          B  0.1959933  0.6442169  0.1563147    0.00000       Uiso       1.00
       O25          O  0.0381690  0.7593009  0.2245348    0.00000       Uiso       1.00
       O26          O  0.1776221  0.7938545  0.1174993    0.00000       Uiso       1.00
      C613          C  0.1202002  0.7758633  0.1633095    0.00000       Uiso       1.00
      C614          C  0.1457223  0.7554173  0.1527431    0.00000       Uiso       1.00
      C615          C  0.1359536  0.8052603  0.1435086    0.00000       Uiso       1.00
      C616          C  0.1600994  0.7859122  0.1324827    0.00000       Uiso       1.00
      C617          C  0.1655651  0.7611238  0.1366545    0.00000       Uiso       1.00
      C618          C  0.1158504  0.8009530  0.1588016    0.00000       Uiso       1.00
      H363          H  0.1851528  0.7472157  0.1268837    0.00000       Uiso       1.00
      H364          H  0.0975430  0.8174058  0.1668688    0.00000       Uiso       1.00
       B14          B  0.0190545  0.7859551  0.2270623    0.00000       Uiso       1.00
       O27          O  0.1342070  0.8286456  0.1374710    0.00000       Uiso       1.00
       O28          O  0.1687312  0.6547172  0.1697123    0.00000       Uiso       1.00
      C619          C  0.1507520  0.7300968  0.1581773    0.00000       Uiso       1.00
      C620          C  0.1302941  0.7250285  0.1731333    0.00000       Uiso       1.00
      C621          C  0.1801529  0.6849609  0.1540784    0.00000       Uiso       1.00
      C622          C  0.1607922  0.6801713  0.1671993    0.00000       Uiso       1.00
      C623          C  0.1359957  0.6994910  0.1768620    0.00000       Uiso       1.00
      C624          C  0.1758502  0.7093603  0.1492926    0.00000       Uiso       1.00
      H365          H  0.1220775  0.6938185  0.1866775    0.00000       Uiso       1.00
      H366          H  0.1923134  0.7112090  0.1390494    0.00000       Uiso       1.00
       B15          B  0.1608704  0.8211042  0.1208712    0.00000       Uiso       1.00
       O29          O  0.2035451  0.6633266  0.1462670    0.00000       Uiso       1.00
       O30          O  0.0295622  0.8027072  0.2132125    0.00000       Uiso       1.00
      C625          C  0.6054004  0.8359601  0.7751310    0.00000       Uiso       1.00
      C626          C  0.6003243  0.8465264  0.7546849    0.00000       Uiso       1.00
      C627          C  0.5602501  0.8557610  0.8045279    0.00000       Uiso       1.00
      C628          C  0.5554523  0.8667869  0.7851797    0.00000       Uiso       1.00
      C629          C  0.5747752  0.8626150  0.7603913    0.00000       Uiso       1.00
      C630          C  0.5846608  0.8404679  0.8002205    0.00000       Uiso       1.00
      H367          H  0.5690955  0.8723860  0.7464833    0.00000       Uiso       1.00
      H368          H  0.5865154  0.8324007  0.8166733    0.00000       Uiso       1.00
       B16          B  0.6964544  0.7722070  0.7852229    0.00000       Uiso       1.00
       O31          O  0.5386115  0.8617985  0.8279131    0.00000       Uiso       1.00
       O32          O  0.6780155  0.8295572  0.6539850    0.00000       Uiso       1.00
      C631          C  0.6206152  0.8410922  0.7293645    0.00000       Uiso       1.00
      C632          C  0.6461414  0.8261362  0.7242962    0.00000       Uiso       1.00
      C633          C  0.6363500  0.8451912  0.6842286    0.00000       Uiso       1.00
      C634          C  0.6605005  0.8320703  0.6794390    0.00000       Uiso       1.00
      C635          C  0.6659772  0.8224075  0.6987587    0.00000       Uiso       1.00
      C636          C  0.6162535  0.8499770  0.7086279    0.00000       Uiso       1.00
      H369          H  0.6855679  0.8125919  0.6930863    0.00000       Uiso       1.00
      H370          H  0.5979416  0.8602203  0.7104766    0.00000       Uiso       1.00
       B17          B  0.5194895  0.8783984  0.8203716    0.00000       Uiso       1.00
       O33          O  0.6345921  0.8530026  0.6625943    0.00000       Uiso       1.00
       O34          O  0.6691947  0.7860569  0.8019749    0.00000       Uiso       1.00
      C637          C  0.6511819  0.8156466  0.7445830    0.00000       Uiso       1.00
      C638          C  0.6307319  0.8211220  0.7700982    0.00000       Uiso       1.00
      C639          C  0.6805974  0.7903185  0.7603210    0.00000       Uiso       1.00
      C640          C  0.6612447  0.7965326  0.7844617    0.00000       Uiso       1.00
      C641          C  0.6364452  0.8116654  0.7899314    0.00000       Uiso       1.00
      C642          C  0.6762834  0.7994330  0.7402278    0.00000       Uiso       1.00
      H371          H  0.6225342  0.8157466  0.8095148    0.00000       Uiso       1.00
      H372          H  0.6927407  0.7932324  0.7219234    0.00000       Uiso       1.00
       B18          B  0.6612536  0.8429549  0.6434846    0.00000       Uiso       1.00
       O35          O  0.7039941  0.7747346  0.7585687    0.00000       Uiso       1.00
       O36          O  0.5299873  0.8817703  0.7931220    0.00000       Uiso       1.00
      C643          C  0.0382930  0.2706352  0.8410926    0.00000       Uiso       1.00
      C644          C  0.0277228  0.2757036  0.8261366    0.00000       Uiso       1.00
      C645          C  0.0184591  0.3157711  0.8451916    0.00000       Uiso       1.00
      C646          C  0.0074297  0.3205608  0.8320706    0.00000       Uiso       1.00
      C647          C  0.0116156  0.3012411  0.8224079    0.00000       Uiso       1.00
      C648          C  0.0337699  0.2913717  0.8499774    0.00000       Uiso       1.00
      H373          H  0.0018405  0.3069136  0.8125923    0.00000       Uiso       1.00
      H374          H  0.0418386  0.2895230  0.8602207    0.00000       Uiso       1.00
       B19          B  0.1021126  0.1796279  0.8783990    0.00000       Uiso       1.00
       O37          O  0.0124057  0.3374054  0.8530030    0.00000       Uiso       1.00
       O38          O  0.0447488  0.1980248  0.7860573    0.00000       Uiso       1.00
      C649          C  0.0331719  0.2554167  0.8156469    0.00000       Uiso       1.00
      C650          C  0.0481466  0.2299015  0.8211224    0.00000       Uiso       1.00
      C651          C  0.0290844  0.2396789  0.7903190    0.00000       Uiso       1.00
      C652          C  0.0422230  0.2155381  0.7965330    0.00000       Uiso       1.00
      C653          C  0.0518898  0.2100683  0.8116658    0.00000       Uiso       1.00
      C654          C  0.0242840  0.2597719  0.7994334    0.00000       Uiso       1.00
      H375          H  0.0617196  0.1904849  0.8157470    0.00000       Uiso       1.00
      H376          H  0.0140273  0.2780764  0.7932328    0.00000       Uiso       1.00
       B20          B  0.9957913  0.3565152  0.8429553    0.00000       Uiso       1.00
       O39          O  0.0212717  0.2414311  0.7747350    0.00000       Uiso       1.00
       O40          O  0.0882428  0.2068776  0.8817708    0.00000       Uiso       1.00
      C655          C  0.0586400  0.2248687  0.8359604    0.00000       Uiso       1.00
      C656          C  0.0531496  0.2453148  0.8465269    0.00000       Uiso       1.00
      C657          C  0.0839894  0.1954717  0.8557614    0.00000       Uiso       1.00
      C658          C  0.0777612  0.2148199  0.8667873    0.00000       Uiso       1.00
      C659          C  0.0626103  0.2396083  0.8626155    0.00000       Uiso       1.00
      C660          C  0.0748718  0.1997790  0.8404684    0.00000       Uiso       1.00
      H377          H  0.0585190  0.2535163  0.8723864    0.00000       Uiso       1.00
      H378          H  0.0810845  0.1833263  0.8324011    0.00000       Uiso       1.00
       B21          B  0.0313388  0.2147769  0.7722074    0.00000       Uiso       1.00
       O41          O  0.0995905  0.1720864  0.8617991    0.00000       Uiso       1.00
       O42          O  0.9924271  0.3460148  0.8295576    0.00000       Uiso       1.00
      C661          C  0.2164915  0.1640397  0.2248696    0.00000       Uiso       1.00
      C662          C  0.2015357  0.1534733  0.2453156    0.00000       Uiso       1.00
      C663          C  0.2205389  0.1442388  0.1954726    0.00000       Uiso       1.00
      C664          C  0.2074190  0.1332129  0.2148207    0.00000       Uiso       1.00
      C665          C  0.1977815  0.1373847  0.2396091    0.00000       Uiso       1.00
      C666          C  0.2253492  0.1595318  0.1997800    0.00000       Uiso       1.00
      H379          H  0.1879648  0.1276138  0.2535172    0.00000       Uiso       1.00
      H380          H  0.2355892  0.1675991  0.1833272    0.00000       Uiso       1.00
       B22          B  0.2538842  0.2277927  0.2147779    0.00000       Uiso       1.00
       O43          O  0.2283230  0.1382012  0.1720874    0.00000       Uiso       1.00
       O44          O  0.1615578  0.1704425  0.3460156    0.00000       Uiso       1.00
      C667          C  0.1910719  0.1589075  0.2706361    0.00000       Uiso       1.00
      C668          C  0.1965737  0.1738636  0.2757044    0.00000       Uiso       1.00
      C669          C  0.1657699  0.1548086  0.3157719    0.00000       Uiso       1.00
      C670          C  0.1720097  0.1679295  0.3205616    0.00000       Uiso       1.00
      C671          C  0.1871434  0.1775922  0.3012420    0.00000       Uiso       1.00
      C672          C  0.1748585  0.1500228  0.2913725    0.00000       Uiso       1.00
      H381          H  0.1912461  0.1874078  0.3069144    0.00000       Uiso       1.00
      H382          H  0.1686385  0.1397795  0.2895238    0.00000       Uiso       1.00
       B23          B  0.2182595  0.1216013  0.1796288    0.00000       Uiso       1.00
       O45          O  0.1501891  0.1469972  0.3374062    0.00000       Uiso       1.00
       O46          O  0.2572263  0.2139429  0.1980259    0.00000       Uiso       1.00
      C673          C  0.2114114  0.1843532  0.2554176    0.00000       Uiso       1.00
      C674          C  0.2219519  0.1788778  0.2299024    0.00000       Uiso       1.00
      C675          C  0.2312368  0.2096812  0.2396798    0.00000       Uiso       1.00
      C676          C  0.2422390  0.2034671  0.2155390    0.00000       Uiso       1.00
      C677          C  0.2380420  0.1883343  0.2100693    0.00000       Uiso       1.00
      C678          C  0.2159442  0.2005667  0.2597729    0.00000       Uiso       1.00
      H383          H  0.2477955  0.1842532  0.1904859    0.00000       Uiso       1.00
      H384          H  0.2078965  0.2067674  0.2780772    0.00000       Uiso       1.00
       B24          B  0.1476932  0.1570449  0.3565159    0.00000       Uiso       1.00
       O47          O  0.2372972  0.2252652  0.2414321    0.00000       Uiso       1.00
       O48          O  0.2048797  0.1182294  0.2068784    0.00000       Uiso       1.00
