data_29
_audit_creation_date              0000-00-00
_audit_creation_method            'LanYouShi'
_symmetry_space_group_name_H-M    'P1'
_cell_length_a                    84.9225998
_cell_length_b                    73.5671005
_cell_length_c                    73.5671005
_cell_angle_alpha                 70.5409012
_cell_angle_beta                  54.7477989
_cell_angle_gamma                 54.7476997
loop_
_atom_site_label
_atom_site_type_symbol
_atom_site_fract_x
_atom_site_fract_y
_atom_site_fract_z
_atom_site_U_iso_or_equiv
_atom_site_adp_type
_atom_site_occupancy
        C1          C  0.5000003  0.5000001  0.4999996    0.00000       Uiso       1.00
        C2          C  0.3238291  0.6357540  0.5712991    0.00000       Uiso       1.00
        C3          C  0.3317911  0.6126804  0.5759009    0.00000       Uiso       1.00
        C4          C  0.3163535  0.6050819  0.5907801    0.00000       Uiso       1.00
        C5          C  0.2932287  0.6203931  0.6011683    0.00000       Uiso       1.00
        C6          C  0.2852668  0.6435089  0.5967672    0.00000       Uiso       1.00
        C7          C  0.3006991  0.6511022  0.5817665    0.00000       Uiso       1.00
        H1          H  0.3353410  0.6420303  0.5596102    0.00000       Uiso       1.00
        H2          H  0.3222167  0.5872867  0.5943435    0.00000       Uiso       1.00
        C8          C  0.5923079  0.5759016  0.3873195    0.00000       Uiso       1.00
        C9          C  0.6048719  0.5712997  0.3642460    0.00000       Uiso       1.00
       C10          C  0.5928663  0.5907809  0.3949181    0.00000       Uiso       1.00
       C11          C  0.6056029  0.6011690  0.3796069    0.00000       Uiso       1.00
       C12          C  0.6179659  0.5967679  0.3564911    0.00000       Uiso       1.00
       C13          C  0.6175344  0.5817672  0.3488978    0.00000       Uiso       1.00
        H3          H  0.6050488  0.5596109  0.3579696    0.00000       Uiso       1.00
        H4          H  0.5834396  0.5943443  0.4127133    0.00000       Uiso       1.00
       C14          C  0.5203729  0.3873197  0.4240982    0.00000       Uiso       1.00
       C15          C  0.5308825  0.3642461  0.4287000    0.00000       Uiso       1.00
       C16          C  0.5122159  0.3949182  0.4092189    0.00000       Uiso       1.00
       C17          C  0.5147906  0.3796070  0.3988307    0.00000       Uiso       1.00
       C18          C  0.5255433  0.3564912  0.4032317    0.00000       Uiso       1.00
       C19          C  0.5335681  0.3488979  0.4182325    0.00000       Uiso       1.00
        H5          H  0.5369820  0.3579698  0.4403889    0.00000       Uiso       1.00
        H6          H  0.5038474  0.4127135  0.4056554    0.00000       Uiso       1.00
       C20          C  0.5555293  0.4240985  0.6126801    0.00000       Uiso       1.00
       C21          C  0.5404178  0.4287004  0.6357536    0.00000       Uiso       1.00
       C22          C  0.5785654  0.4092193  0.6050816    0.00000       Uiso       1.00
       C23          C  0.5863790  0.3988310  0.6203928    0.00000       Uiso       1.00
       C24          C  0.5712252  0.4032321  0.6435086    0.00000       Uiso       1.00
       C25          C  0.5481996  0.4182329  0.6511018    0.00000       Uiso       1.00
        H7          H  0.5226295  0.4403892  0.6420299    0.00000       Uiso       1.00
        H8          H  0.5904975  0.4056558  0.5872864    0.00000       Uiso       1.00
        N1          N  0.6057888  0.6169776  0.3882336    0.00000       Uiso       1.00
        H9          H  0.6155775  0.6229820  0.3753473    0.00000       Uiso       1.00
       H10          H  0.6117744  0.6088050  0.3988312    0.00000       Uiso       1.00
        N2          N  0.5059779  0.3882337  0.3830221    0.00000       Uiso       1.00
       H11          H  0.5090756  0.3753473  0.3770178    0.00000       Uiso       1.00
       H12          H  0.5135647  0.3963109  0.3702890    0.00000       Uiso       1.00
        N3          N  0.6110002  0.3830225  0.6117661    0.00000       Uiso       1.00
       H13          H  0.6139069  0.3770181  0.6246525    0.00000       Uiso       1.00
       H14          H  0.6194109  0.3911951  0.6011685    0.00000       Uiso       1.00
        N4          N  0.2772343  0.6117664  0.6169769    0.00000       Uiso       1.00
       H15          H  0.2614413  0.6246528  0.6229811    0.00000       Uiso       1.00
       H16          H  0.2801652  0.6036892  0.6297100    0.00000       Uiso       1.00
        N5          N  0.2927581  0.6755797  0.5765941    0.00000       Uiso       1.00
       H17          H  0.2759552  0.6843125  0.5853012    0.00000       Uiso       1.00
       H18          H  0.2980573  0.6780822  0.5601395    0.00000       Uiso       1.00
        N6          N  0.5449324  0.3244204  0.4234049    0.00000       Uiso       1.00
       H19          H  0.5455695  0.3156876  0.4146978    0.00000       Uiso       1.00
       H20          H  0.5362795  0.3219179  0.4398595    0.00000       Uiso       1.00
        N7          N  0.6306478  0.5765948  0.3244204    0.00000       Uiso       1.00
       H21          H  0.6387434  0.5853019  0.3156875    0.00000       Uiso       1.00
       H22          H  0.6201558  0.5808703  0.3192968    0.00000       Uiso       1.00
        N8          N  0.5316631  0.4234053  0.6755792    0.00000       Uiso       1.00
       H23          H  0.5397331  0.4146982  0.6843121    0.00000       Uiso       1.00
       H24          H  0.5203232  0.4191298  0.6807028    0.00000       Uiso       1.00
       C26          C  0.3945245  0.5828711  0.5314134    0.00000       Uiso       1.00
       C27          C  0.4035600  0.5641851  0.5432715    0.00000       Uiso       1.00
       C28          C  0.3892779  0.5612684  0.5657037    0.00000       Uiso       1.00
       C29          C  0.3661412  0.5770343  0.5761496    0.00000       Uiso       1.00
       C30          C  0.3567149  0.5959669  0.5645854    0.00000       Uiso       1.00
       C31          C  0.3713570  0.5985736  0.5420655    0.00000       Uiso       1.00
       H25          H  0.3647274  0.6126199  0.5326097    0.00000       Uiso       1.00
       H26          H  0.3555458  0.5746518  0.5934359    0.00000       Uiso       1.00
       C32          C  0.5531685  0.5432721  0.4358147    0.00000       Uiso       1.00
       C33          C  0.5740622  0.5314139  0.4171288    0.00000       Uiso       1.00
       C34          C  0.5450184  0.5657043  0.4387315    0.00000       Uiso       1.00
       C35          C  0.5577093  0.5761502  0.4229656    0.00000       Uiso       1.00
       C36          C  0.5786997  0.5645860  0.4040330    0.00000       Uiso       1.00
       C37          C  0.5865774  0.5420661  0.4014263    0.00000       Uiso       1.00
       H27          H  0.6026629  0.5326104  0.3873800    0.00000       Uiso       1.00
       H28          H  0.5510184  0.5934365  0.4253481    0.00000       Uiso       1.00
       C38          C  0.5110171  0.4358150  0.4567276    0.00000       Uiso       1.00
       C39          C  0.5088091  0.4171291  0.4685858    0.00000       Uiso       1.00
       C40          C  0.5162507  0.4387316  0.4342953    0.00000       Uiso       1.00
       C41          C  0.5193257  0.4229657  0.4238494    0.00000       Uiso       1.00
       C42          C  0.5172676  0.4040331  0.4354136    0.00000       Uiso       1.00
       C43          C  0.5119963  0.4014266  0.4579337    0.00000       Uiso       1.00
       H29          H  0.5099572  0.3873804  0.4673894    0.00000       Uiso       1.00
       H30          H  0.5236341  0.4253481  0.4065632    0.00000       Uiso       1.00
       C44          C  0.5322555  0.4567280  0.5641848    0.00000       Uiso       1.00
       C45          C  0.5226051  0.4685861  0.5828708    0.00000       Uiso       1.00
       C46          C  0.5494545  0.4342958  0.5612680    0.00000       Uiso       1.00
       C47          C  0.5568253  0.4238499  0.5770339    0.00000       Uiso       1.00
       C48          C  0.5473190  0.4354140  0.5959666    0.00000       Uiso       1.00
       C49          C  0.5300701  0.4579340  0.5985733    0.00000       Uiso       1.00
       H31          H  0.5226533  0.4673897  0.6126196    0.00000       Uiso       1.00
       H32          H  0.5698034  0.4065636  0.5746514    0.00000       Uiso       1.00
       C50          C  0.4089385  0.5853664  0.5089795    0.00000       Uiso       1.00
       C51          C  0.4318710  0.5696976  0.4985100    0.00000       Uiso       1.00
       C52          C  0.3985034  0.5424951  0.5772551    0.00000       Uiso       1.00
       C53          C  0.4214497  0.5269050  0.5667955    0.00000       Uiso       1.00
       C54          C  0.5182542  0.4575049  0.4227440    0.00000       Uiso       1.00
       C55          C  0.5151509  0.4730949  0.4332036    0.00000       Uiso       1.00
       C56          C  0.5590024  0.4227445  0.5424946    0.00000       Uiso       1.00
       C57          C  0.5516462  0.4332041  0.5269045    0.00000       Uiso       1.00
       C58          C  0.5056956  0.4910200  0.5853662    0.00000       Uiso       1.00
       C59          C  0.4984319  0.5014895  0.5696974    0.00000       Uiso       1.00
       H33          H  0.4980440  0.5005478  0.5994921    0.00000       Uiso       1.00
       H34          H  0.4853654  0.5187760  0.5722112    0.00000       Uiso       1.00
       H35          H  0.5722451  0.4055324  0.5398216    0.00000       Uiso       1.00
       H36          H  0.5593965  0.4237461  0.5126812    0.00000       Uiso       1.00
       H37          H  0.4279226  0.5126817  0.5762535    0.00000       Uiso       1.00
       H38          H  0.3879338  0.5398220  0.5944672    0.00000       Uiso       1.00
       H39          H  0.4424236  0.5722114  0.4812235    0.00000       Uiso       1.00
       H40          H  0.4024642  0.5994923  0.4994516    0.00000       Uiso       1.00
       H41          H  0.5168587  0.4873180  0.4237456    0.00000       Uiso       1.00
       H42          H  0.5222238  0.4601778  0.4055319    0.00000       Uiso       1.00
       C60          C  0.4642863  0.5353919  0.4998157    0.00000       Uiso       1.00
       C61          C  0.4740817  0.5171638  0.5116960    0.00000       Uiso       1.00
       C62          C  0.4591006  0.5141164  0.5339141    0.00000       Uiso       1.00
       C63          C  0.4359010  0.5296601  0.5444939    0.00000       Uiso       1.00
       C64          C  0.4269057  0.5483562  0.5326659    0.00000       Uiso       1.00
       C65          C  0.4411298  0.5511236  0.5101874    0.00000       Uiso       1.00
       H43          H  0.4748252  0.5375180  0.4824128    0.00000       Uiso       1.00
       H44          H  0.4654995  0.4995923  0.5431312    0.00000       Uiso       1.00
       C66          C  0.5142224  0.5116965  0.4828360    0.00000       Uiso       1.00
       C67          C  0.5358983  0.4998161  0.4646080    0.00000       Uiso       1.00
       C68          C  0.5069855  0.5339146  0.4858833    0.00000       Uiso       1.00
       C69          C  0.5196053  0.5444944  0.4703397    0.00000       Uiso       1.00
       C70          C  0.5404285  0.5326664  0.4516436    0.00000       Uiso       1.00
       C71          C  0.5486829  0.5101879  0.4488763    0.00000       Uiso       1.00
       H45          H  0.5427622  0.4824132  0.4624819    0.00000       Uiso       1.00
       H46          H  0.4913694  0.5431318  0.5004073    0.00000       Uiso       1.00
       C72          C  0.5029418  0.4828363  0.4883032    0.00000       Uiso       1.00
       C73          C  0.4994940  0.4646083  0.5001836    0.00000       Uiso       1.00
       C74          C  0.5071316  0.4858836  0.4660850    0.00000       Uiso       1.00
       C75          C  0.5100554  0.4703399  0.4555053    0.00000       Uiso       1.00
       C76          C  0.5079281  0.4516439  0.4673333    0.00000       Uiso       1.00
       C77          C  0.5024409  0.4488766  0.4898119    0.00000       Uiso       1.00
       H47          H  0.4947561  0.4624823  0.5175865    0.00000       Uiso       1.00
       H48          H  0.5082237  0.5004076  0.4568679    0.00000       Uiso       1.00
       C78          C  0.5087552  0.4883037  0.5171634    0.00000       Uiso       1.00
       C79          C  0.5003225  0.5001839  0.5353915    0.00000       Uiso       1.00
       C80          C  0.5267837  0.4660855  0.5141160    0.00000       Uiso       1.00
       C81          C  0.5344397  0.4555058  0.5296597    0.00000       Uiso       1.00
       C82          C  0.5247388  0.4673337  0.5483558    0.00000       Uiso       1.00
       C83          C  0.5077472  0.4898122  0.5511232    0.00000       Uiso       1.00
       H49          H  0.4876574  0.5175869  0.5375177    0.00000       Uiso       1.00
       H50          H  0.5349089  0.4568684  0.4995920    0.00000       Uiso       1.00
       C84          C  0.5696191  0.4985105  0.4303022    0.00000       Uiso       1.00
       C85          C  0.5820821  0.5089800  0.4146335    0.00000       Uiso       1.00
       C86          C  0.5117549  0.5667961  0.4730948    0.00000       Uiso       1.00
       C87          C  0.5242416  0.5772557  0.4575048    0.00000       Uiso       1.00
       C88          C  0.5000787  0.4303026  0.5014892    0.00000       Uiso       1.00
       C89          C  0.5032845  0.4146339  0.4910198    0.00000       Uiso       1.00
       H51          H  0.5980842  0.4994522  0.4005076    0.00000       Uiso       1.00
       H52          H  0.5763530  0.4812240  0.4277885    0.00000       Uiso       1.00
       H53          H  0.4958241  0.5762540  0.4873180    0.00000       Uiso       1.00
       H54          H  0.5175992  0.5944678  0.4601778    0.00000       Uiso       1.00
       H55          H  0.4958585  0.4277890  0.5187758    0.00000       Uiso       1.00
       H56          H  0.5014080  0.4005081  0.5005476    0.00000       Uiso       1.00
       C90          C  0.8748321  0.6251121  0.8750001    0.00000       Uiso       1.00
       C91          C  0.7389675  0.7300155  0.8347082    0.00000       Uiso       1.00
       C92          C  0.7620426  0.7174536  0.8195875    0.00000       Uiso       1.00
       C93          C  0.7696276  0.7180187  0.7965586    0.00000       Uiso       1.00
       C94          C  0.7543014  0.7307598  0.7887610    0.00000       Uiso       1.00
       C95          C  0.7311841  0.7431209  0.8039238    0.00000       Uiso       1.00
       C96          C  0.7236044  0.7426827  0.8269423    0.00000       Uiso       1.00
       H57          H  0.7327017  0.7301872  0.8524914    0.00000       Uiso       1.00
       H58          H  0.7874240  0.7085935  0.7846197    0.00000       Uiso       1.00
       C97          C  0.7990221  0.6454338  0.0431778    0.00000       Uiso       1.00
       C98          C  0.8036401  0.6559331  0.0511389    0.00000       Uiso       1.00
       C99          C  0.7841398  0.6372803  0.0586114    0.00000       Uiso       1.00
      C100          C  0.7737641  0.6398482  0.0817316    0.00000       Uiso       1.00
      C101          C  0.7781811  0.6505905  0.0896929    0.00000       Uiso       1.00
      C102          C  0.7931851  0.6586120  0.0742644    0.00000       Uiso       1.00
       H59          H  0.8153317  0.6620298  0.0396296    0.00000       Uiso       1.00
       H60          H  0.7805641  0.6289197  0.0527487    0.00000       Uiso       1.00
      C103          C  0.9875554  0.6806070  0.7827084    0.00000       Uiso       1.00
      C104          C  0.0106319  0.6654975  0.7701330    0.00000       Uiso       1.00
      C105          C  0.9799600  0.7036365  0.7821640    0.00000       Uiso       1.00
      C106          C  0.9952771  0.7114454  0.7694298    0.00000       Uiso       1.00
      C107          C  0.0183957  0.6962935  0.7570552    0.00000       Uiso       1.00
      C108          C  0.0259859  0.6732747  0.7574728    0.00000       Uiso       1.00
       H61          H  0.0169057  0.6477145  0.7699454    0.00000       Uiso       1.00
       H62          H  0.9621626  0.7155669  0.7915997    0.00000       Uiso       1.00
      C109          C  0.9507081  0.4569531  0.8545277    0.00000       Uiso       1.00
      C110          C  0.9460891  0.4490014  0.8440211    0.00000       Uiso       1.00
      C111          C  0.9656011  0.4415121  0.8626673    0.00000       Uiso       1.00
      C112          C  0.9759859  0.4183942  0.8600789    0.00000       Uiso       1.00
      C113          C  0.9715676  0.4104426  0.8493294    0.00000       Uiso       1.00
      C114          C  0.9565532  0.4258783  0.8413216    0.00000       Uiso       1.00
       H63          H  0.9343896  0.4605161  0.8379348    0.00000       Uiso       1.00
       H64          H  0.9691778  0.4473674  0.8710332    0.00000       Uiso       1.00
        N9          N  0.7579518  0.6310393  0.0977221    0.00000       Uiso       1.00
       H65          H  0.7519577  0.6341313  0.1135121    0.00000       Uiso       1.00
       H66          H  0.7661223  0.6144608  0.0955251    0.00000       Uiso       1.00
       N10          N  0.9866534  0.7360596  0.7692588    0.00000       Uiso       1.00
       H67          H  0.9995438  0.7389635  0.7594700    0.00000       Uiso       1.00
       H68          H  0.9785853  0.7412001  0.7849216    0.00000       Uiso       1.00
       N11          N  0.9918094  0.4023959  0.8688734    0.00000       Uiso       1.00
       H69          H  0.9978092  0.3866087  0.8657672    0.00000       Uiso       1.00
       H70          H  0.9836451  0.4045781  0.8854538    0.00000       Uiso       1.00
       N12          N  0.7629140  0.7309529  0.7641470    0.00000       Uiso       1.00
       H71          H  0.7500178  0.7407442  0.7612519    0.00000       Uiso       1.00
       H72          H  0.7709868  0.7152945  0.7589924    0.00000       Uiso       1.00
       N13          N  0.6991257  0.7557937  0.8434882    0.00000       Uiso       1.00
       H73          H  0.6903814  0.7638934  0.8354294    0.00000       Uiso       1.00
       H74          H  0.6966329  0.7669417  0.8512926    0.00000       Uiso       1.00
       N14          N  0.0504661  0.6567405  0.7443470    0.00000       Uiso       1.00
       H75          H  0.0592031  0.6648065  0.7362547    0.00000       Uiso       1.00
       H76          H  0.0529574  0.6489460  0.7331921    0.00000       Uiso       1.00
       N15          N  0.7983742  0.6699651  0.0822046    0.00000       Uiso       1.00
       H77          H  0.7896747  0.6705984  0.0990041    0.00000       Uiso       1.00
       H78          H  0.7940964  0.6855783  0.0759999    0.00000       Uiso       1.00
       N16          N  0.9513625  0.4179482  0.8299614    0.00000       Uiso       1.00
       H79          H  0.9600692  0.4011493  0.8293132    0.00000       Uiso       1.00
       H80          H  0.9556305  0.4241669  0.8143538    0.00000       Uiso       1.00
      C115          C  0.7918999  0.6991880  0.8524755    0.00000       Uiso       1.00
      C116          C  0.8105846  0.6782997  0.8428117    0.00000       Uiso       1.00
      C117          C  0.8134851  0.6701595  0.8256156    0.00000       Uiso       1.00
      C118          C  0.7977041  0.6828550  0.8182608    0.00000       Uiso       1.00
      C119          C  0.7787724  0.7038403  0.8277807    0.00000       Uiso       1.00
      C120          C  0.7761824  0.7117081  0.8450264    0.00000       Uiso       1.00
       H81          H  0.7621374  0.7277892  0.8524532    0.00000       Uiso       1.00
       H82          H  0.8000740  0.6761719  0.8052846    0.00000       Uiso       1.00
      C121          C  0.8316126  0.6361001  0.9714215    0.00000       Uiso       1.00
      C122          C  0.8434885  0.6338841  0.9804468    0.00000       Uiso       1.00
      C123          C  0.8091755  0.6413348  0.9857095    0.00000       Uiso       1.00
      C124          C  0.7987421  0.6444024  0.0088427    0.00000       Uiso       1.00
      C125          C  0.8103241  0.6423361  0.0182587    0.00000       Uiso       1.00
      C126          C  0.8328487  0.6370637  0.0036107    0.00000       Uiso       1.00
       H83          H  0.8423180  0.6350185  0.0102322    0.00000       Uiso       1.00
       H84          H  0.7814518  0.6487117  0.0194430    0.00000       Uiso       1.00
      C127          C  0.9390415  0.6573479  0.8218415    0.00000       Uiso       1.00
      C128          C  0.9577210  0.6477029  0.8009444    0.00000       Uiso       1.00
      C129          C  0.9361372  0.6745366  0.8299971    0.00000       Uiso       1.00
      C130          C  0.9519092  0.6819028  0.8173082    0.00000       Uiso       1.00
      C131          C  0.9708356  0.6724017  0.7963143    0.00000       Uiso       1.00
      C132          C  0.9734297  0.6551631  0.7884311    0.00000       Uiso       1.00
       H85          H  0.9874708  0.6477508  0.7723432    0.00000       Uiso       1.00
       H86          H  0.9495365  0.6948729  0.8240029    0.00000       Uiso       1.00
      C133          C  0.9180899  0.5287004  0.8639258    0.00000       Uiso       1.00
      C134          C  0.9062191  0.5196733  0.8661337    0.00000       Uiso       1.00
      C135          C  0.9405310  0.5144170  0.8586786    0.00000       Uiso       1.00
      C136          C  0.9509733  0.4912873  0.8555898    0.00000       Uiso       1.00
      C137          C  0.9393964  0.4818695  0.8576476    0.00000       Uiso       1.00
      C138          C  0.9168676  0.4965128  0.8629329    0.00000       Uiso       1.00
       H87          H  0.9074023  0.4898895  0.8649722    0.00000       Uiso       1.00
       H88          H  0.9682663  0.4806908  0.8512711    0.00000       Uiso       1.00
      C139          C  0.7894211  0.7071979  0.8693819    0.00000       Uiso       1.00
      C140          C  0.8051047  0.6947302  0.8766298    0.00000       Uiso       1.00
      C141          C  0.8322573  0.6493879  0.8160543    0.00000       Uiso       1.00
      C142          C  0.8478623  0.6368966  0.8233947    0.00000       Uiso       1.00
      C143          C  0.9173700  0.6840792  0.8507773    0.00000       Uiso       1.00
      C144          C  0.9017739  0.6767277  0.8632621    0.00000       Uiso       1.00
      C145          C  0.9520950  0.5236341  0.8566751    0.00000       Uiso       1.00
      C146          C  0.9416391  0.5465734  0.8597919    0.00000       Uiso       1.00
      C147          C  0.8837766  0.5340884  0.8716721    0.00000       Uiso       1.00
      C148          C  0.8733109  0.5570139  0.8748913    0.00000       Uiso       1.00
       H89          H  0.8742390  0.5276204  0.8735487    0.00000       Uiso       1.00
       H90          H  0.8560173  0.5675677  0.8791219    0.00000       Uiso       1.00
       H91          H  0.9693143  0.5130633  0.8526951    0.00000       Uiso       1.00
       H92          H  0.9511070  0.5530400  0.8580839    0.00000       Uiso       1.00
       H93          H  0.8620842  0.6209698  0.8156344    0.00000       Uiso       1.00
       H94          H  0.8349177  0.6427531  0.8028135    0.00000       Uiso       1.00
       H95          H  0.8026035  0.7014563  0.8896945    0.00000       Uiso       1.00
       H96          H  0.7752967  0.7231957  0.8770435    0.00000       Uiso       1.00
       H97          H  0.8875559  0.6844736  0.8791956    0.00000       Uiso       1.00
       H98          H  0.9147066  0.6973140  0.8574240    0.00000       Uiso       1.00
      C149          C  0.8394244  0.6610100  0.8747098    0.00000       Uiso       1.00
      C150          C  0.8576517  0.6393394  0.8662632    0.00000       Uiso       1.00
      C151          C  0.8606823  0.6321124  0.8482381    0.00000       Uiso       1.00
      C152          C  0.8451235  0.6447370  0.8405982    0.00000       Uiso       1.00
      C153          C  0.8264287  0.6655549  0.8503124    0.00000       Uiso       1.00
      C154          C  0.8236778  0.6737993  0.8673012    0.00000       Uiso       1.00
       H99          H  0.8373109  0.6678661  0.8873734    0.00000       Uiso       1.00
      H100          H  0.8752051  0.6165005  0.8401031    0.00000       Uiso       1.00
      C155          C  0.8631498  0.6280459  0.9009137    0.00000       Uiso       1.00
      C156          C  0.8750480  0.6245899  0.9106979    0.00000       Uiso       1.00
      C157          C  0.8409271  0.6322369  0.9158999    0.00000       Uiso       1.00
      C158          C  0.8303599  0.6351538  0.9390951    0.00000       Uiso       1.00
      C159          C  0.8422056  0.6330182  0.9480802    0.00000       Uiso       1.00
      C160          C  0.8646891  0.6275299  0.9338499    0.00000       Uiso       1.00
      H101          H  0.8924549  0.6198512  0.9001538    0.00000       Uiso       1.00
      H102          H  0.8316965  0.6333354  0.9095084    0.00000       Uiso       1.00
      C161          C  0.8920024  0.6338617  0.8607806    0.00000       Uiso       1.00
      C162          C  0.9102235  0.6254345  0.8391026    0.00000       Uiso       1.00
      C163          C  0.8889670  0.6518801  0.8680239    0.00000       Uiso       1.00
      C164          C  0.9045166  0.6595313  0.8554061    0.00000       Uiso       1.00
      C165          C  0.9232064  0.6498359  0.8345795    0.00000       Uiso       1.00
      C166          C  0.9259611  0.6328546  0.8263199    0.00000       Uiso       1.00
      H103          H  0.9123396  0.6127772  0.8322351    0.00000       Uiso       1.00
      H104          H  0.8744475  0.6600011  0.8836431    0.00000       Uiso       1.00
      C167          C  0.8865247  0.5992011  0.8720431    0.00000       Uiso       1.00
      C168          C  0.8746326  0.5894138  0.8754901    0.00000       Uiso       1.00
      C169          C  0.9087523  0.5842186  0.8678388    0.00000       Uiso       1.00
      C170          C  0.9193285  0.5610259  0.8649012    0.00000       Uiso       1.00
      C171          C  0.9074879  0.5520390  0.8670286    0.00000       Uiso       1.00
      C172          C  0.8850005  0.5662645  0.8725294    0.00000       Uiso       1.00
      H105          H  0.8572230  0.5999538  0.8802382    0.00000       Uiso       1.00
      H106          H  0.9179795  0.5906110  0.8667461    0.00000       Uiso       1.00
      C173          C  0.8763840  0.6251596  0.9430984    0.00000       Uiso       1.00
      C174          C  0.8659270  0.6283584  0.9660267    0.00000       Uiso       1.00
      C175          C  0.8080535  0.6402502  0.9535522    0.00000       Uiso       1.00
      C176          C  0.7976064  0.6433466  0.9764943    0.00000       Uiso       1.00
      C177          C  0.9445289  0.6235447  0.8053806    0.00000       Uiso       1.00
      C178          C  0.9602038  0.6308038  0.7929193    0.00000       Uiso       1.00
      H107          H  0.8754684  0.6264759  0.9724930    0.00000       Uiso       1.00
      H108          H  0.8936746  0.6209384  0.9325409    0.00000       Uiso       1.00
      H109          H  0.7985820  0.6419643  0.9470872    0.00000       Uiso       1.00
      H110          H  0.7803901  0.6473172  0.9870686    0.00000       Uiso       1.00
      H111          H  0.9470330  0.6104861  0.7986427    0.00000       Uiso       1.00
      H112          H  0.9743243  0.6231565  0.7769147    0.00000       Uiso       1.00
      C179          C  0.7501678  0.8749999  0.3748884    0.00000       Uiso       1.00
      C180          C  0.6452217  0.0511385  0.3440666    0.00000       Uiso       1.00
      C181          C  0.6578006  0.0431774  0.3545660    0.00000       Uiso       1.00
      C182          C  0.6572493  0.0586111  0.3627195    0.00000       Uiso       1.00
      C183          C  0.6445047  0.0817313  0.3601516    0.00000       Uiso       1.00
      C184          C  0.6321265  0.0896926  0.3494093    0.00000       Uiso       1.00
      C185          C  0.6325510  0.0742641  0.3413878    0.00000       Uiso       1.00
      H113          H  0.6450392  0.0396293  0.3379700    0.00000       Uiso       1.00
      H114          H  0.6666876  0.0527484  0.3710801    0.00000       Uiso       1.00
      C186          C  0.7297364  0.7827078  0.3193933    0.00000       Uiso       1.00
      C187          C  0.7192356  0.7701324  0.3345028    0.00000       Uiso       1.00
      C188          C  0.7378764  0.7821634  0.2963638    0.00000       Uiso       1.00
      C189          C  0.7352936  0.7694292  0.2885549    0.00000       Uiso       1.00
      C190          C  0.7245496  0.7570546  0.3037067    0.00000       Uiso       1.00
      C191          C  0.7165418  0.7574722  0.3267256    0.00000       Uiso       1.00
      H115          H  0.7131494  0.7699448  0.3522857    0.00000       Uiso       1.00
      H116          H  0.7462380  0.7915992  0.2844335    0.00000       Uiso       1.00
      C192          C  0.6947647  0.8545272  0.5430470    0.00000       Uiso       1.00
      C193          C  0.7098900  0.8440208  0.5509988    0.00000       Uiso       1.00
      C194          C  0.6717320  0.8626670  0.5584881    0.00000       Uiso       1.00
      C195          C  0.6639357  0.8600785  0.5816059    0.00000       Uiso       1.00
      C196          C  0.6791034  0.8493290  0.5895576    0.00000       Uiso       1.00
      C197          C  0.7021255  0.8413213  0.5741220    0.00000       Uiso       1.00
      H117          H  0.7276759  0.8379344  0.5394841    0.00000       Uiso       1.00
      H118          H  0.6597894  0.8710328  0.5526327    0.00000       Uiso       1.00
      C198          C  0.9183697  0.8195874  0.2825471    0.00000       Uiso       1.00
      C199          C  0.9263241  0.8347081  0.2699852    0.00000       Uiso       1.00
      C200          C  0.9338137  0.7965584  0.2819821    0.00000       Uiso       1.00
      C201          C  0.9569374  0.7887609  0.2692409    0.00000       Uiso       1.00
      C202          C  0.9648918  0.8039238  0.2568799    0.00000       Uiso       1.00
      C203          C  0.9494531  0.8269423  0.2573181    0.00000       Uiso       1.00
      H119          H  0.9148068  0.8524913  0.2698135    0.00000       Uiso       1.00
      H120          H  0.9279563  0.7846196  0.2914071    0.00000       Uiso       1.00
       N17          N  0.7440881  0.7692582  0.2639408    0.00000       Uiso       1.00
      H121          H  0.7409864  0.7594694  0.2610369    0.00000       Uiso       1.00
      H122          H  0.7606713  0.7632837  0.2555265    0.00000       Uiso       1.00
       N18          N  0.6393177  0.8688730  0.5976042    0.00000       Uiso       1.00
      H123          H  0.6364239  0.8657669  0.6133914    0.00000       Uiso       1.00
      H124          H  0.6341665  0.8612852  0.5946769    0.00000       Uiso       1.00
       N19          N  0.9729389  0.7641469  0.2690479    0.00000       Uiso       1.00
      H125          H  0.9887302  0.7612517  0.2592567    0.00000       Uiso       1.00
      H126          H  0.9707456  0.7557380  0.2630659    0.00000       Uiso       1.00
       N20          N  0.6443266  0.0977218  0.3689605    0.00000       Uiso       1.00
      H127          H  0.6345308  0.1135118  0.3658685    0.00000       Uiso       1.00
      H128          H  0.6599908  0.0948013  0.3613701    0.00000       Uiso       1.00
       N21          N  0.6194217  0.0822043  0.3300346    0.00000       Uiso       1.00
      H129          H  0.6113218  0.0990037  0.3294013    0.00000       Uiso       1.00
      H130          H  0.6082690  0.0768962  0.3386885    0.00000       Uiso       1.00
       N22          N  0.7186764  0.8299611  0.5820521    0.00000       Uiso       1.00
      H131          H  0.7106179  0.8293128  0.5988509    0.00000       Uiso       1.00
      H132          H  0.7264770  0.8386197  0.5767517    0.00000       Uiso       1.00
       N23          N  0.7051874  0.7443464  0.3432598    0.00000       Uiso       1.00
      H133          H  0.7045428  0.7362540  0.3351937    0.00000       Uiso       1.00
      H134          H  0.6895750  0.7548262  0.3546017    0.00000       Uiso       1.00
       N24          N  0.9573859  0.8434882  0.2442070    0.00000       Uiso       1.00
      H135          H  0.9741890  0.8354293  0.2361075    0.00000       Uiso       1.00
      H136          H  0.9511760  0.8548207  0.2546970    0.00000       Uiso       1.00
      C204          C  0.6760649  0.9804466  0.3661163    0.00000       Uiso       1.00
      C205          C  0.6969660  0.9714213  0.3639002    0.00000       Uiso       1.00
      C206          C  0.7051150  0.9857094  0.3586656    0.00000       Uiso       1.00
      C207          C  0.6924158  0.0088423  0.3555974    0.00000       Uiso       1.00
      C208          C  0.6714177  0.0182583  0.3576637    0.00000       Uiso       1.00
      C209          C  0.6635411  0.0036103  0.3629361    0.00000       Uiso       1.00
      H137          H  0.6474503  0.0102318  0.3649814    0.00000       Uiso       1.00
      H138          H  0.6991057  0.0194426  0.3512881    0.00000       Uiso       1.00
      C210          C  0.7391173  0.8218411  0.3426524    0.00000       Uiso       1.00
      C211          C  0.7413347  0.8009441  0.3522975    0.00000       Uiso       1.00
      C212          C  0.7338662  0.8299966  0.3254635    0.00000       Uiso       1.00
      C213          C  0.7307831  0.8173076  0.3180974    0.00000       Uiso       1.00
      C214          C  0.7328503  0.7963138  0.3275986    0.00000       Uiso       1.00
      C215          C  0.7381393  0.7884306  0.3448373    0.00000       Uiso       1.00
      H139          H  0.7401859  0.7723429  0.3522498    0.00000       Uiso       1.00
      H140          H  0.7264613  0.8240023  0.3051272    0.00000       Uiso       1.00
      C216          C  0.7179844  0.8639256  0.4712999    0.00000       Uiso       1.00
      C217          C  0.7276472  0.8661337  0.4803271    0.00000       Uiso       1.00
      C218          C  0.7007908  0.8586779  0.4855832    0.00000       Uiso       1.00
      C219          C  0.6934375  0.8555892  0.5087129    0.00000       Uiso       1.00
      C220          C  0.7029563  0.8576473  0.5181308    0.00000       Uiso       1.00
      C221          C  0.7201995  0.8629329  0.5034875    0.00000       Uiso       1.00
      H141          H  0.7276254  0.8649724  0.5101109    0.00000       Uiso       1.00
      H142          H  0.6804633  0.8512702  0.5193093    0.00000       Uiso       1.00
      C222          C  0.8466036  0.8428115  0.3217010    0.00000       Uiso       1.00
      C223          C  0.8556246  0.8524753  0.3008127    0.00000       Uiso       1.00
      C224          C  0.8608994  0.8256153  0.3298411    0.00000       Uiso       1.00
      C225          C  0.8840352  0.8182605  0.3171456    0.00000       Uiso       1.00
      C226          C  0.8934469  0.8277805  0.2961604    0.00000       Uiso       1.00
      C227          C  0.8787912  0.8450264  0.2882926    0.00000       Uiso       1.00
      H143          H  0.8854094  0.8524532  0.2722116    0.00000       Uiso       1.00
      H144          H  0.8946414  0.8052843  0.3238287    0.00000       Uiso       1.00
      C228          C  0.6680464  0.9660265  0.3716419    0.00000       Uiso       1.00
      C229          C  0.6805178  0.9430981  0.3748407    0.00000       Uiso       1.00
      C230          C  0.7258993  0.9764941  0.3566537    0.00000       Uiso       1.00
      C231          C  0.7383944  0.9535520  0.3597502    0.00000       Uiso       1.00
      C232          C  0.6912307  0.8566741  0.4763661    0.00000       Uiso       1.00
      C233          C  0.6985696  0.8597910  0.4534268    0.00000       Uiso       1.00
      C234          C  0.8516885  0.8160539  0.3506126    0.00000       Uiso       1.00
      C235          C  0.8287431  0.8233944  0.3631039    0.00000       Uiso       1.00
      C236          C  0.8411969  0.8693820  0.2928028    0.00000       Uiso       1.00
      C237          C  0.8182653  0.8766299  0.3052705    0.00000       Uiso       1.00
      H145          H  0.8476598  0.8770437  0.2768050    0.00000       Uiso       1.00
      H146          H  0.8077018  0.8896947  0.2985443    0.00000       Uiso       1.00
      H147          H  0.8622687  0.8028131  0.3572473    0.00000       Uiso       1.00
      H148          H  0.8222815  0.8156340  0.3790305    0.00000       Uiso       1.00
      H149          H  0.7543309  0.9470870  0.3580362    0.00000       Uiso       1.00
      H150          H  0.7325412  0.9870685  0.3526831    0.00000       Uiso       1.00
      H151          H  0.6737846  0.9325406  0.3790619    0.00000       Uiso       1.00
      H152          H  0.6520388  0.9724928  0.3735245    0.00000       Uiso       1.00
      H153          H  0.6908101  0.8580827  0.4469602    0.00000       Uiso       1.00
      H154          H  0.6779916  0.8526939  0.4869369    0.00000       Uiso       1.00
      C238          C  0.7142543  0.9106977  0.3754103    0.00000       Uiso       1.00
      C239          C  0.7359367  0.9009134  0.3719545    0.00000       Uiso       1.00
      C240          C  0.7431731  0.9158998  0.3677636    0.00000       Uiso       1.00
      C241          C  0.7305450  0.9390950  0.3648466    0.00000       Uiso       1.00
      C242          C  0.7097144  0.9480800  0.3669821    0.00000       Uiso       1.00
      C243          C  0.7014612  0.9338498  0.3724703    0.00000       Uiso       1.00
      H155          H  0.7073916  0.9001535  0.3801490    0.00000       Uiso       1.00
      H156          H  0.7587952  0.9095082  0.3666652    0.00000       Uiso       1.00
      C244          C  0.7472172  0.8607802  0.3661387    0.00000       Uiso       1.00
      C245          C  0.7506741  0.8391023  0.3745659    0.00000       Uiso       1.00
      C246          C  0.7430095  0.8680235  0.3481201    0.00000       Uiso       1.00
      C247          C  0.7400776  0.8554057  0.3404689    0.00000       Uiso       1.00
      C248          C  0.7422143  0.8345791  0.3501644    0.00000       Uiso       1.00
      C249          C  0.7477190  0.8263195  0.3671458    0.00000       Uiso       1.00
      H157          H  0.7554253  0.8322348  0.3872233    0.00000       Uiso       1.00
      H158          H  0.7419097  0.8836427  0.3399991    0.00000       Uiso       1.00
      C250          C  0.7414322  0.8720429  0.4007992    0.00000       Uiso       1.00
      C251          C  0.7498773  0.8754901  0.4105866    0.00000       Uiso       1.00
      C252          C  0.7234092  0.8678383  0.4157818    0.00000       Uiso       1.00
      C253          C  0.7157707  0.8649006  0.4389744    0.00000       Uiso       1.00
      C254          C  0.7254837  0.8670284  0.4479613    0.00000       Uiso       1.00
      C255          C  0.7424699  0.8725294  0.4337360    0.00000       Uiso       1.00
      H159          H  0.7625385  0.8802384  0.4000467    0.00000       Uiso       1.00
      H160          H  0.7152748  0.8667454  0.4093893    0.00000       Uiso       1.00
      C256          C  0.7760853  0.8662630  0.3606610    0.00000       Uiso       1.00
      C257          C  0.7858657  0.8747097  0.3389906    0.00000       Uiso       1.00
      C258          C  0.7910796  0.8482379  0.3678881    0.00000       Uiso       1.00
      C259          C  0.8142783  0.8405979  0.3552635    0.00000       Uiso       1.00
      C260          C  0.8232590  0.8503121  0.3344457    0.00000       Uiso       1.00
      C261          C  0.8090211  0.8673010  0.3262013    0.00000       Uiso       1.00
      H161          H  0.7753158  0.8873732  0.3321345    0.00000       Uiso       1.00
      H162          H  0.7846918  0.8401029  0.3835000    0.00000       Uiso       1.00
      C262          C  0.7500905  0.8053802  0.3764559    0.00000       Uiso       1.00
      C263          C  0.7468768  0.7929191  0.3691969    0.00000       Uiso       1.00
      C264          C  0.7349646  0.8632615  0.3232724    0.00000       Uiso       1.00
      C265          C  0.7318534  0.8507767  0.3159208    0.00000       Uiso       1.00
      C266          C  0.7517976  0.8748918  0.4429866    0.00000       Uiso       1.00
      C267          C  0.7445511  0.8716725  0.4659120    0.00000       Uiso       1.00
      H163          H  0.7487607  0.7769144  0.3768442    0.00000       Uiso       1.00
      H164          H  0.7543242  0.7986425  0.3895146    0.00000       Uiso       1.00
      H165          H  0.7332492  0.8791952  0.3155264    0.00000       Uiso       1.00
      H166          H  0.7278702  0.8574233  0.3026859    0.00000       Uiso       1.00
      H167          H  0.7648602  0.8791226  0.4324328    0.00000       Uiso       1.00
      H168          H  0.7522117  0.8735495  0.4723800    0.00000       Uiso       1.00
      C268          C  0.3749444  0.3748880  0.1249996    0.00000       Uiso       1.00
      C269          C  0.3036916  0.2699846  0.1652912    0.00000       Uiso       1.00
      C270          C  0.2990841  0.2825465  0.1804119    0.00000       Uiso       1.00
      C271          C  0.2842051  0.2819814  0.2034409    0.00000       Uiso       1.00
      C272          C  0.2738226  0.2692403  0.2112384    0.00000       Uiso       1.00
      C273          C  0.2782292  0.2568792  0.1960755    0.00000       Uiso       1.00
      C274          C  0.2932298  0.2573174  0.1730570    0.00000       Uiso       1.00
      H169          H  0.3153805  0.2698129  0.1475080    0.00000       Uiso       1.00
      H170          H  0.2806375  0.2914065  0.2153797    0.00000       Uiso       1.00
      C275          C  0.4876340  0.3545663  0.9568221    0.00000       Uiso       1.00
      C276          C  0.5107122  0.3440669  0.9488610    0.00000       Uiso       1.00
      C277          C  0.4800318  0.3627198  0.9413884    0.00000       Uiso       1.00
      C278          C  0.4953441  0.3601519  0.9182681    0.00000       Uiso       1.00
      C279          C  0.5184647  0.3494096  0.9103070    0.00000       Uiso       1.00
      C280          C  0.5260615  0.3413881  0.9257355    0.00000       Uiso       1.00
      H171          H  0.5169913  0.3379703  0.9603703    0.00000       Uiso       1.00
      H172          H  0.4622328  0.3710804  0.9472511    0.00000       Uiso       1.00
      C281          C  0.4508708  0.3193931  0.2172918    0.00000       Uiso       1.00
      C282          C  0.4462622  0.3345026  0.2298671    0.00000       Uiso       1.00
      C283          C  0.4657604  0.2963636  0.2178362    0.00000       Uiso       1.00
      C284          C  0.4761521  0.2885547  0.2305704    0.00000       Uiso       1.00
      C285          C  0.4717442  0.3037065  0.2429450    0.00000       Uiso       1.00
      C286          C  0.4567331  0.3267254  0.2425274    0.00000       Uiso       1.00
      H173          H  0.4345654  0.3522856  0.2300547    0.00000       Uiso       1.00
      H174          H  0.4693291  0.2844332  0.2084005    0.00000       Uiso       1.00
      C287          C  0.2621889  0.5430470  0.1454721    0.00000       Uiso       1.00
      C288          C  0.2391118  0.5509987  0.1559785    0.00000       Uiso       1.00
      C289          C  0.2697805  0.5584880  0.1373324    0.00000       Uiso       1.00
      C290          C  0.2544590  0.5816059  0.1399209    0.00000       Uiso       1.00
      C291          C  0.2313397  0.5895575  0.1506703    0.00000       Uiso       1.00
      C292          C  0.2237533  0.5741218  0.1586780    0.00000       Uiso       1.00
      H175          H  0.2328406  0.5394840  0.1620649    0.00000       Uiso       1.00
      H176          H  0.2875784  0.5526327  0.1289666    0.00000       Uiso       1.00
       N25          N  0.4867134  0.3689607  0.9022777    0.00000       Uiso       1.00
      H177          H  0.4996012  0.3658688  0.8864877    0.00000       Uiso       1.00
      H178          H  0.4761084  0.3855392  0.9044747    0.00000       Uiso       1.00
       N26          N  0.4919717  0.2639405  0.2307414    0.00000       Uiso       1.00
      H179          H  0.4979773  0.2610366  0.2405302    0.00000       Uiso       1.00
      H180          H  0.5047070  0.2587999  0.2150786    0.00000       Uiso       1.00
       N27          N  0.2630786  0.5976042  0.1311264    0.00000       Uiso       1.00
      H181          H  0.2501851  0.6133914  0.1342325    0.00000       Uiso       1.00
      H182          H  0.2736771  0.5954220  0.1145460    0.00000       Uiso       1.00
       N28          N  0.2580141  0.2690473  0.2358523    0.00000       Uiso       1.00
      H183          H  0.2520142  0.2592559  0.2387475    0.00000       Uiso       1.00
      H184          H  0.2452740  0.2847056  0.2410069    0.00000       Uiso       1.00
       N29          N  0.2984080  0.2442063  0.1565111    0.00000       Uiso       1.00
      H185          H  0.2897045  0.2361068  0.1645699    0.00000       Uiso       1.00
      H186          H  0.3148676  0.2330584  0.1487067    0.00000       Uiso       1.00
       N30          N  0.4515534  0.3432596  0.2556532    0.00000       Uiso       1.00
      H187          H  0.4602641  0.3351935  0.2637456    0.00000       Uiso       1.00
      H188          H  0.4350953  0.3510540  0.2668082    0.00000       Uiso       1.00
       N31          N  0.5505441  0.3300349  0.9177954    0.00000       Uiso       1.00
      H189          H  0.5592773  0.3294017  0.9009959    0.00000       Uiso       1.00
      H190          H  0.5556747  0.3144217  0.9240001    0.00000       Uiso       1.00
       N32          N  0.1992723  0.5820519  0.1700382    0.00000       Uiso       1.00
      H191          H  0.1905319  0.5988508  0.1706865    0.00000       Uiso       1.00
      H192          H  0.1941514  0.5758331  0.1856458    0.00000       Uiso       1.00
      C293          C  0.3435636  0.3008121  0.1475241    0.00000       Uiso       1.00
      C294          C  0.3316961  0.3217005  0.1571879    0.00000       Uiso       1.00
      C295          C  0.3092602  0.3298406  0.1743840    0.00000       Uiso       1.00
      C296          C  0.2988200  0.3171451  0.1817387    0.00000       Uiso       1.00
      C297          C  0.3103936  0.2961598  0.1722188    0.00000       Uiso       1.00
      C298          C  0.3329171  0.2882920  0.1549731    0.00000       Uiso       1.00
      H193          H  0.3423800  0.2722108  0.1475463    0.00000       Uiso       1.00
      H194          H  0.2815308  0.3238283  0.1947149    0.00000       Uiso       1.00
      C299          C  0.4391343  0.3639000  0.0285783    0.00000       Uiso       1.00
      C300          C  0.4578193  0.3661160  0.0195531    0.00000       Uiso       1.00
      C301          C  0.4362198  0.3586653  0.0142902    0.00000       Uiso       1.00
      C302          C  0.4519874  0.3555977  0.9911571    0.00000       Uiso       1.00
      C303          C  0.4709191  0.3576640  0.9817412    0.00000       Uiso       1.00
      C304          C  0.4735234  0.3629363  0.9963892    0.00000       Uiso       1.00
      H195          H  0.4875688  0.3649817  0.9897677    0.00000       Uiso       1.00
      H196          H  0.4496068  0.3512883  0.9805567    0.00000       Uiso       1.00
      C305          C  0.4182309  0.3426522  0.1781585    0.00000       Uiso       1.00
      C306          C  0.4063684  0.3522972  0.1990556    0.00000       Uiso       1.00
      C307          C  0.4406709  0.3254634  0.1700029    0.00000       Uiso       1.00
      C308          C  0.4511201  0.3180973  0.1826919    0.00000       Uiso       1.00
      C309          C  0.4395516  0.3275983  0.2036857    0.00000       Uiso       1.00
      C310          C  0.4170239  0.3448370  0.2115690    0.00000       Uiso       1.00
      H197          H  0.4075648  0.3522493  0.2276568    0.00000       Uiso       1.00
      H198          H  0.4684122  0.3051272  0.1759972    0.00000       Uiso       1.00
      C311          C  0.3107162  0.4712996  0.1360739    0.00000       Uiso       1.00
      C312          C  0.2920262  0.4803268  0.1338660    0.00000       Uiso       1.00
      C313          C  0.3136267  0.4855831  0.1413212    0.00000       Uiso       1.00
      C314          C  0.2978504  0.5087128  0.1444100    0.00000       Uiso       1.00
      C315          C  0.2789135  0.5181307  0.1423521    0.00000       Uiso       1.00
      C316          C  0.2763133  0.5034873  0.1370668    0.00000       Uiso       1.00
      H199          H  0.2622640  0.5101106  0.1350274    0.00000       Uiso       1.00
      H200          H  0.3002282  0.5193093  0.1487287    0.00000       Uiso       1.00
      C317          C  0.3660011  0.2928022  0.1306177    0.00000       Uiso       1.00
      C318          C  0.3764651  0.3052699  0.1233698    0.00000       Uiso       1.00
      C319          C  0.2976997  0.3506122  0.1839452    0.00000       Uiso       1.00
      C320          C  0.3081537  0.3631035  0.1766049    0.00000       Uiso       1.00
      C321          C  0.4522265  0.3159209  0.1492227    0.00000       Uiso       1.00
      C322          C  0.4417636  0.3232725  0.1367379    0.00000       Uiso       1.00
      C323          C  0.3324042  0.4763660  0.1433247    0.00000       Uiso       1.00
      C324          C  0.3480045  0.4534267  0.1402079    0.00000       Uiso       1.00
      C325          C  0.2895372  0.4659117  0.1283275    0.00000       Uiso       1.00
      C326          C  0.3052162  0.4429862  0.1251083    0.00000       Uiso       1.00
      H201          H  0.2754084  0.4723796  0.1264508    0.00000       Uiso       1.00
      H202          H  0.3027071  0.4324324  0.1208777    0.00000       Uiso       1.00
      H203          H  0.3350725  0.4869368  0.1473048    0.00000       Uiso       1.00
      H204          H  0.3622307  0.4469601  0.1419161    0.00000       Uiso       1.00
      H205          H  0.2986886  0.3790302  0.1843652    0.00000       Uiso       1.00
      H206          H  0.2804846  0.3572470  0.1971861    0.00000       Uiso       1.00
      H207          H  0.3937546  0.2985437  0.1103051    0.00000       Uiso       1.00
      H208          H  0.3755361  0.2768044  0.1229561    0.00000       Uiso       1.00
      H209          H  0.4512251  0.3155265  0.1208043    0.00000       Uiso       1.00
      H210          H  0.4694445  0.3026860  0.1425761    0.00000       Uiso       1.00
      C327          C  0.3751443  0.3389902  0.1252899    0.00000       Uiso       1.00
      C328          C  0.3632544  0.3606606  0.1337366    0.00000       Uiso       1.00
      C329          C  0.3410330  0.3678876  0.1517616    0.00000       Uiso       1.00
      C330          C  0.3304589  0.3552631  0.1594014    0.00000       Uiso       1.00
      C331          C  0.3422961  0.3344452  0.1496873    0.00000       Uiso       1.00
      C332          C  0.3647783  0.3262008  0.1326985    0.00000       Uiso       1.00
      H211          H  0.3925503  0.3321341  0.1126264    0.00000       Uiso       1.00
      H212          H  0.3318089  0.3834996  0.1598966    0.00000       Uiso       1.00
      C333          C  0.3921094  0.3719542  0.0990861    0.00000       Uiso       1.00
      C334          C  0.4103359  0.3754101  0.0893019    0.00000       Uiso       1.00
      C335          C  0.3890639  0.3677632  0.0840998    0.00000       Uiso       1.00
      C336          C  0.4046089  0.3648463  0.0609046    0.00000       Uiso       1.00
      C337          C  0.4233040  0.3669819  0.0519196    0.00000       Uiso       1.00
      C338          C  0.4260689  0.3724701  0.0661499    0.00000       Uiso       1.00
      H213          H  0.4124599  0.3801489  0.0998461    0.00000       Uiso       1.00
      H214          H  0.3745404  0.3666647  0.0904913    0.00000       Uiso       1.00
      C339          C  0.3866448  0.3661384  0.1392192    0.00000       Uiso       1.00
      C340          C  0.3747606  0.3745656  0.1608973    0.00000       Uiso       1.00
      C341          C  0.4088710  0.3481199  0.1319761    0.00000       Uiso       1.00
      C342          C  0.4194541  0.3404688  0.1445938    0.00000       Uiso       1.00
      C343          C  0.4076218  0.3501642  0.1654204    0.00000       Uiso       1.00
      C344          C  0.3851357  0.3671455  0.1736800    0.00000       Uiso       1.00
      H215          H  0.3573520  0.3872229  0.1677647    0.00000       Uiso       1.00
      H216          H  0.4180918  0.3399990  0.1163568    0.00000       Uiso       1.00
      C345          C  0.3577691  0.4007990  0.1279567    0.00000       Uiso       1.00
      C346          C  0.3395366  0.4105863  0.1245096    0.00000       Uiso       1.00
      C347          C  0.3608098  0.4157815  0.1321610    0.00000       Uiso       1.00
      C348          C  0.3452557  0.4389742  0.1350986    0.00000       Uiso       1.00
      C349          C  0.3265556  0.4479610  0.1329712    0.00000       Uiso       1.00
      C350          C  0.3237945  0.4337357  0.1274703    0.00000       Uiso       1.00
      H217          H  0.3374152  0.4000463  0.1197615    0.00000       Uiso       1.00
      H218          H  0.3753367  0.4093890  0.1332538    0.00000       Uiso       1.00
      C351          C  0.4446420  0.3748405  0.0569015    0.00000       Uiso       1.00
      C352          C  0.4603122  0.3716417  0.0339732    0.00000       Uiso       1.00
      C353          C  0.4018560  0.3597498  0.0464475    0.00000       Uiso       1.00
      C354          C  0.4174474  0.3566535  0.0235054    0.00000       Uiso       1.00
      C355          C  0.3734541  0.3764554  0.1946194    0.00000       Uiso       1.00
      C356          C  0.3839269  0.3691964  0.2070806    0.00000       Uiso       1.00
      H219          H  0.4744373  0.3735242  0.0275070    0.00000       Uiso       1.00
      H220          H  0.4471539  0.3790617  0.0674591    0.00000       Uiso       1.00
      H221          H  0.3876336  0.3580358  0.0529125    0.00000       Uiso       1.00
      H222          H  0.4147762  0.3526828  0.0129311    0.00000       Uiso       1.00
      H223          H  0.3561617  0.3895140  0.2013572    0.00000       Uiso       1.00
      H224          H  0.3743956  0.3768436  0.2230853    0.00000       Uiso       1.00
      C357          C  0.0000559  0.1250002  0.6251124    0.00000       Uiso       1.00
      C358          C  0.0404264  0.9488615  0.6559340    0.00000       Uiso       1.00
      C359          C  0.0555436  0.9568227  0.6454347    0.00000       Uiso       1.00
      C360          C  0.0785794  0.9413890  0.6372812    0.00000       Uiso       1.00
      C361          C  0.0863873  0.9182687  0.6398491    0.00000       Uiso       1.00
      C362          C  0.0712279  0.9103075  0.6505914    0.00000       Uiso       1.00
      C363          C  0.0482026  0.9257360  0.6586128    0.00000       Uiso       1.00
      H225          H  0.0226381  0.9603708  0.6620306    0.00000       Uiso       1.00
      H226          H  0.0905157  0.9472517  0.6289206    0.00000       Uiso       1.00
      C364          C  0.8318375  0.2172922  0.6806070    0.00000       Uiso       1.00
      C365          C  0.8238707  0.2298676  0.6654975    0.00000       Uiso       1.00
      C366          C  0.8164035  0.2178367  0.7036365    0.00000       Uiso       1.00
      C367          C  0.7932776  0.2305709  0.7114454    0.00000       Uiso       1.00
      C368          C  0.7853108  0.2429455  0.6962935    0.00000       Uiso       1.00
      C369          C  0.8007395  0.2425278  0.6732747    0.00000       Uiso       1.00
      H227          H  0.8353799  0.2300552  0.6477146    0.00000       Uiso       1.00
      H228          H  0.8222705  0.2084009  0.7155669    0.00000       Uiso       1.00
      C370          C  0.0923387  0.1454728  0.4569537    0.00000       Uiso       1.00
      C371          C  0.1049094  0.1559792  0.4490020    0.00000       Uiso       1.00
      C372          C  0.0928868  0.1373331  0.4415127    0.00000       Uiso       1.00
      C373          C  0.1056198  0.1399216  0.4183948    0.00000       Uiso       1.00
      C374          C  0.1179896  0.1506711  0.4104432    0.00000       Uiso       1.00
      C375          C  0.1175684  0.1586787  0.4258789    0.00000       Uiso       1.00
      H229          H  0.1050942  0.1620656  0.4605168    0.00000       Uiso       1.00
      H230          H  0.0834548  0.1289672  0.4473680    0.00000       Uiso       1.00
      C376          C  0.0205038  0.1804126  0.7174540    0.00000       Uiso       1.00
      C377          C  0.0310171  0.1652919  0.7300159    0.00000       Uiso       1.00
      C378          C  0.0123538  0.2034416  0.7180190    0.00000       Uiso       1.00
      C379          C  0.0149389  0.2112392  0.7307602    0.00000       Uiso       1.00
      C380          C  0.0256951  0.1960763  0.7431213    0.00000       Uiso       1.00
      C381          C  0.0337131  0.1730578  0.7426831    0.00000       Uiso       1.00
      H231          H  0.0371113  0.1475087  0.7301875    0.00000       Uiso       1.00
      H232          H  0.0039826  0.2153805  0.7085940    0.00000       Uiso       1.00
       N33          N  0.7772871  0.2307419  0.7360595    0.00000       Uiso       1.00
      H233          H  0.7614927  0.2405306  0.7389634    0.00000       Uiso       1.00
      H234          H  0.7794814  0.2367164  0.7444738    0.00000       Uiso       1.00
       N34          N  0.1057947  0.1311271  0.4023965    0.00000       Uiso       1.00
      H235          H  0.1155821  0.1342331  0.3866093    0.00000       Uiso       1.00
      H236          H  0.0901284  0.1387148  0.4053237    0.00000       Uiso       1.00
       N35          N  0.0061334  0.2358532  0.7309532    0.00000       Uiso       1.00
      H237          H  0.0092381  0.2387483  0.7407445    0.00000       Uiso       1.00
      H238          H  0.9895490  0.2442621  0.7369352    0.00000       Uiso       1.00
       N36          N  0.1110085  0.9022782  0.6310403    0.00000       Uiso       1.00
      H239          H  0.1139107  0.8864883  0.6341323    0.00000       Uiso       1.00
      H240          H  0.1161618  0.9051988  0.6386307    0.00000       Uiso       1.00
       N37          N  0.0316602  0.9177958  0.6699659    0.00000       Uiso       1.00
      H241          H  0.0397265  0.9009963  0.6705992    0.00000       Uiso       1.00
      H242          H  0.0238535  0.9231039  0.6613120    0.00000       Uiso       1.00
       N38          N  0.1306892  0.1700390  0.4179489    0.00000       Uiso       1.00
      H243          H  0.1387812  0.1706872  0.4011500    0.00000       Uiso       1.00
      H244          H  0.1418480  0.1613803  0.4232492    0.00000       Uiso       1.00
       N39          N  0.7927935  0.2556537  0.6567405    0.00000       Uiso       1.00
      H245          H  0.7759903  0.2637461  0.6648065    0.00000       Uiso       1.00
      H246          H  0.7990028  0.2451738  0.6453986    0.00000       Uiso       1.00
       N40          N  0.0450807  0.1565119  0.7557942    0.00000       Uiso       1.00
      H247          H  0.0457254  0.1645707  0.7638938    0.00000       Uiso       1.00
      H248          H  0.0606935  0.1451793  0.7453042    0.00000       Uiso       1.00
      C382          C  0.0226276  0.0195535  0.6338844    0.00000       Uiso       1.00
      C383          C  0.0322874  0.0285787  0.6361005    0.00000       Uiso       1.00
      C384          C  0.0494899  0.0142906  0.6413352    0.00000       Uiso       1.00
      C385          C  0.0568551  0.9911577  0.6444032    0.00000       Uiso       1.00
      C386          C  0.0473393  0.9817417  0.6423370    0.00000       Uiso       1.00
      C387          C  0.0300870  0.9963898  0.6370645    0.00000       Uiso       1.00
      H249          H  0.0226632  0.9897683  0.6350192    0.00000       Uiso       1.00
      H250          H  0.0698359  0.9805574  0.6487127    0.00000       Uiso       1.00
      C388          C  0.9036105  0.1781590  0.6573482    0.00000       Uiso       1.00
      C389          C  0.8945760  0.1990560  0.6477030    0.00000       Uiso       1.00
      C390          C  0.8893261  0.1700035  0.6745369    0.00000       Uiso       1.00
      C391          C  0.8661880  0.1826925  0.6819030    0.00000       Uiso       1.00
      C392          C  0.8567626  0.2036862  0.6724018    0.00000       Uiso       1.00
      C393          C  0.8714072  0.2115694  0.6551632    0.00000       Uiso       1.00
      H251          H  0.8647785  0.2276572  0.6477506    0.00000       Uiso       1.00
      H252          H  0.8555907  0.1759977  0.6948732    0.00000       Uiso       1.00
      C394          C  0.0532097  0.1360745  0.5287009    0.00000       Uiso       1.00
      C395          C  0.0741078  0.1338663  0.5196737    0.00000       Uiso       1.00
      C396          C  0.0450518  0.1413221  0.5144175    0.00000       Uiso       1.00
      C397          C  0.0577393  0.1444108  0.4912878    0.00000       Uiso       1.00
      C398          C  0.0787341  0.1423528  0.4818700    0.00000       Uiso       1.00
      C399          C  0.0866198  0.1370672  0.4965133    0.00000       Uiso       1.00
      H253          H  0.1027085  0.1350276  0.4898899    0.00000       Uiso       1.00
      H254          H  0.0510426  0.1487298  0.4806914    0.00000       Uiso       1.00
      C400          C  0.0111159  0.1571885  0.6782999    0.00000       Uiso       1.00
      C401          C  0.0089123  0.1475247  0.6991882    0.00000       Uiso       1.00
      C402          C  0.0163556  0.1743848  0.6701599    0.00000       Uiso       1.00
      C403          C  0.0194410  0.1817395  0.6828554    0.00000       Uiso       1.00
      C404          C  0.0173875  0.1722195  0.7038407    0.00000       Uiso       1.00
      C405          C  0.0121099  0.1549737  0.7117083    0.00000       Uiso       1.00
      H255          H  0.0100738  0.1475468  0.7277895    0.00000       Uiso       1.00
      H256          H  0.0237540  0.1947158  0.6761723    0.00000       Uiso       1.00
      C406          C  0.0057147  0.0339736  0.6283586    0.00000       Uiso       1.00
      C407          C  0.9984564  0.0569019  0.6251599    0.00000       Uiso       1.00
      C408          C  0.0590471  0.0235059  0.6433470    0.00000       Uiso       1.00
      C409          C  0.0516964  0.0464480  0.6402506    0.00000       Uiso       1.00
      C410          C  0.0242707  0.1433259  0.5236346    0.00000       Uiso       1.00
      C411          C  0.0117873  0.1402090  0.5465738    0.00000       Uiso       1.00
      C412          C  0.0183548  0.1839461  0.6493884    0.00000       Uiso       1.00
      C413          C  0.0152411  0.1766057  0.6368970    0.00000       Uiso       1.00
      C414          C  0.0033814  0.1306181  0.7071981    0.00000       Uiso       1.00
      C415          C  0.0001655  0.1233702  0.6947303    0.00000       Uiso       1.00
      H257          H  0.0015082  0.1229564  0.7231959    0.00000       Uiso       1.00
      H258          H  0.9959406  0.1103054  0.7014564    0.00000       Uiso       1.00
      H259          H  0.0223289  0.1971870  0.6427537    0.00000       Uiso       1.00
      H260          H  0.0169458  0.1843660  0.6209704    0.00000       Uiso       1.00
      H261          H  0.0594538  0.0529130  0.6419647    0.00000       Uiso       1.00
      H262          H  0.0722926  0.0129315  0.6473177    0.00000       Uiso       1.00
      H263          H  0.9853870  0.0674595  0.6209386    0.00000       Uiso       1.00
      H264          H  0.9980558  0.0275073  0.6264760    0.00000       Uiso       1.00
      H265          H  0.9958527  0.1419174  0.5530404    0.00000       Uiso       1.00
      H266          H  0.0176222  0.1473062  0.5130637    0.00000       Uiso       1.00
      C416          C  0.0003621  0.0893024  0.6245903    0.00000       Uiso       1.00
      C417          C  0.0088044  0.0990866  0.6280462    0.00000       Uiso       1.00
      C418          C  0.0268362  0.0841003  0.6322372    0.00000       Uiso       1.00
      C419          C  0.0344865  0.0609051  0.6351541    0.00000       Uiso       1.00
      C420          C  0.0247763  0.0519201  0.6330186    0.00000       Uiso       1.00
      C421          C  0.0077811  0.0661504  0.6275303    0.00000       Uiso       1.00
      H267          H  0.9876938  0.0998466  0.6198516    0.00000       Uiso       1.00
      H268          H  0.0349684  0.0904918  0.6333356    0.00000       Uiso       1.00
      C422          C  0.9741359  0.1392198  0.6338620    0.00000       Uiso       1.00
      C423          C  0.9643420  0.1608978  0.6254347    0.00000       Uiso       1.00
      C424          C  0.9591529  0.1319766  0.6518805    0.00000       Uiso       1.00
      C425          C  0.9359519  0.1445944  0.6595317    0.00000       Uiso       1.00
      C426          C  0.9269577  0.1654210  0.6498361    0.00000       Uiso       1.00
      C427          C  0.9411843  0.1736805  0.6328548    0.00000       Uiso       1.00
      H269          H  0.9748831  0.1677652  0.6127774    0.00000       Uiso       1.00
      H270          H  0.9655513  0.1163574  0.6600015    0.00000       Uiso       1.00
      C428          C  0.0142742  0.1279572  0.5992014    0.00000       Uiso       1.00
      C429          C  0.0359538  0.1245100  0.5894142    0.00000       Uiso       1.00
      C430          C  0.0070291  0.1321618  0.5842190    0.00000       Uiso       1.00
      C431          C  0.0196455  0.1350994  0.5610263    0.00000       Uiso       1.00
      C432          C  0.0404731  0.1329718  0.5520394    0.00000       Uiso       1.00
      C433          C  0.0487352  0.1274706  0.5662647    0.00000       Uiso       1.00
      H271          H  0.0428234  0.1197617  0.5999541    0.00000       Uiso       1.00
      H272          H  0.9914092  0.1332546  0.5906114    0.00000       Uiso       1.00
      C434          C  0.0030090  0.1337371  0.6393397    0.00000       Uiso       1.00
      C435          C  0.9995657  0.1252904  0.6610102    0.00000       Uiso       1.00
      C436          C  0.0072053  0.1517622  0.6321128    0.00000       Uiso       1.00
      C437          C  0.0101395  0.1594021  0.6447374    0.00000       Uiso       1.00
      C438          C  0.0080165  0.1496879  0.6655552    0.00000       Uiso       1.00
      C439          C  0.0025232  0.1326990  0.6737995    0.00000       Uiso       1.00
      H273          H  0.9948233  0.1126268  0.6678663    0.00000       Uiso       1.00
      H274          H  0.0082945  0.1598972  0.6165008    0.00000       Uiso       1.00
      C440          C  0.9319265  0.1946198  0.6235447    0.00000       Uiso       1.00
      C441          C  0.9089925  0.2070810  0.6308036    0.00000       Uiso       1.00
      C442          C  0.9214984  0.1367386  0.6767281    0.00000       Uiso       1.00
      C443          C  0.8985507  0.1492234  0.6840796    0.00000       Uiso       1.00
      C444          C  0.0696756  0.1251083  0.5570143    0.00000       Uiso       1.00
      C445          C  0.0821353  0.1283275  0.5340888    0.00000       Uiso       1.00
      H275          H  0.9025191  0.2230856  0.6231563    0.00000       Uiso       1.00
      H276          H  0.9424810  0.2013576  0.6104860    0.00000       Uiso       1.00
      H277          H  0.9279706  0.1208049  0.6844742    0.00000       Uiso       1.00
      H278          H  0.8879793  0.1425768  0.6973146    0.00000       Uiso       1.00
      H279          H  0.0764153  0.1208775  0.5675681    0.00000       Uiso       1.00
      H280          H  0.0981409  0.1264506  0.5276209    0.00000       Uiso       1.00
      C446          C  0.2499995  0.0000007  0.9995533    0.00000       Uiso       1.00
      C447          C  0.4261420  0.9288219  0.8637360    0.00000       Uiso       1.00
      C448          C  0.4181923  0.9241994  0.8868054    0.00000       Uiso       1.00
      C449          C  0.4336399  0.9093134  0.8943907    0.00000       Uiso       1.00
      C450          C  0.4567625  0.8989389  0.8790703    0.00000       Uiso       1.00
      C451          C  0.4647121  0.9033607  0.8559584    0.00000       Uiso       1.00
      C452          C  0.4492697  0.9183682  0.8483785    0.00000       Uiso       1.00
      H281          H  0.4146220  0.9405164  0.8574701    0.00000       Uiso       1.00
      H282          H  0.4277864  0.9057341  0.9121827    0.00000       Uiso       1.00
      C453          C  0.1576075  0.1127488  0.9237524    0.00000       Uiso       1.00
      C454          C  0.1450353  0.1358183  0.9283749    0.00000       Uiso       1.00
      C455          C  0.1570458  0.1051636  0.9088664    0.00000       Uiso       1.00
      C456          C  0.1442978  0.1204841  0.8984919    0.00000       Uiso       1.00
      C457          C  0.1319264  0.1435959  0.9029136    0.00000       Uiso       1.00
      C458          C  0.1323612  0.1511758  0.9179211    0.00000       Uiso       1.00
      H283          H  0.1448608  0.1420842  0.9400693    0.00000       Uiso       1.00
      H284          H  0.1664789  0.0873716  0.9052870    0.00000       Uiso       1.00
      C459          C  0.2296432  0.0758009  0.1123021    0.00000       Uiso       1.00
      C460          C  0.2191460  0.0711784  0.1353716    0.00000       Uiso       1.00
      C461          C  0.2377901  0.0906870  0.1047169    0.00000       Uiso       1.00
      C462          C  0.2352176  0.1010615  0.1200374    0.00000       Uiso       1.00
      C463          C  0.2244772  0.0966398  0.1431492    0.00000       Uiso       1.00
      C464          C  0.2164625  0.0816322  0.1507291    0.00000       Uiso       1.00
      H285          H  0.2130546  0.0594840  0.1416374    0.00000       Uiso       1.00
      H286          H  0.2461491  0.0942663  0.0869249    0.00000       Uiso       1.00
      C465          C  0.1945548  0.8872516  0.0753546    0.00000       Uiso       1.00
      C466          C  0.2096746  0.8641821  0.0707321    0.00000       Uiso       1.00
      C467          C  0.1715219  0.8948368  0.0902406    0.00000       Uiso       1.00
      C468          C  0.1637199  0.8795164  0.1006151    0.00000       Uiso       1.00
      C469          C  0.1788821  0.8564045  0.0961933    0.00000       Uiso       1.00
      C470          C  0.2019043  0.8488246  0.0811858    0.00000       Uiso       1.00
      H287          H  0.2274604  0.8579162  0.0590377    0.00000       Uiso       1.00
      H288          H  0.1595835  0.9126289  0.0938199    0.00000       Uiso       1.00
       N41          N  0.1441087  0.1118715  0.8826756    0.00000       Uiso       1.00
      H289          H  0.1343115  0.1247633  0.8766828    0.00000       Uiso       1.00
      H290          H  0.1381314  0.1012666  0.8908387    0.00000       Uiso       1.00
       N42          N  0.2440194  0.1168778  0.1114248    0.00000       Uiso       1.00
      H291          H  0.2409247  0.1228706  0.1243166    0.00000       Uiso       1.00
      H292          H  0.2364233  0.1296181  0.1033590    0.00000       Uiso       1.00
       N43          N  0.1391019  0.8881289  0.1164313    0.00000       Uiso       1.00
      H293          H  0.1362037  0.8752372  0.1224241    0.00000       Uiso       1.00
      H294          H  0.1306828  0.8987339  0.1082682    0.00000       Uiso       1.00
       N44          N  0.4727679  0.8831226  0.8876829    0.00000       Uiso       1.00
      H295          H  0.4885578  0.8771298  0.8747911    0.00000       Uiso       1.00
      H296          H  0.4698464  0.8703823  0.8957486    0.00000       Uiso       1.00
       N45          N  0.4571975  0.9235625  0.8239057    0.00000       Uiso       1.00
      H297          H  0.4740003  0.9148632  0.8151651    0.00000       Uiso       1.00
      H298          H  0.4518898  0.9400192  0.8214178    0.00000       Uiso       1.00
       N46          N  0.2051117  0.0764380  0.1752019    0.00000       Uiso       1.00
      H299          H  0.2044746  0.0851372  0.1839425    0.00000       Uiso       1.00
      H300          H  0.2137729  0.0599811  0.1776897    0.00000       Uiso       1.00
       N47          N  0.1192393  0.1756487  0.9231154    0.00000       Uiso       1.00
      H301          H  0.1111358  0.1843893  0.9144161    0.00000       Uiso       1.00
      H302          H  0.1297270  0.1807761  0.9188445    0.00000       Uiso       1.00
       N48          N  0.2184494  0.8243517  0.0759916    0.00000       Uiso       1.00
      H303          H  0.2103873  0.8156111  0.0846909    0.00000       Uiso       1.00
      H304          H  0.2297936  0.8192243  0.0802625    0.00000       Uiso       1.00
      C471          C  0.3554524  0.9686605  0.9166544    0.00000       Uiso       1.00
      C472          C  0.3464305  0.9567856  0.9353297    0.00000       Uiso       1.00
      C473          C  0.3607239  0.9343508  0.9382265    0.00000       Uiso       1.00
      C474          C  0.3838583  0.9239190  0.9224513    0.00000       Uiso       1.00
      C475          C  0.3932709  0.9355000  0.9035290    0.00000       Uiso       1.00
      C476          C  0.3786175  0.9580224  0.9009425    0.00000       Uiso       1.00
      H305          H  0.3852367  0.9674906  0.8869047    0.00000       Uiso       1.00
      H306          H  0.3944624  0.9066306  0.9248183    0.00000       Uiso       1.00
      C477          C  0.1967832  0.0642244  0.9563386    0.00000       Uiso       1.00
      C478          C  0.1758865  0.0828997  0.9682134    0.00000       Uiso       1.00
      C479          C  0.2049246  0.0613276  0.9339038    0.00000       Uiso       1.00
      C480          C  0.1922221  0.0771029  0.9234719    0.00000       Uiso       1.00
      C481          C  0.1712283  0.0960253  0.9350530    0.00000       Uiso       1.00
      C482          C  0.1633594  0.0986118  0.9575753    0.00000       Uiso       1.00
      H307          H  0.1472720  0.1126496  0.9670435    0.00000       Uiso       1.00
      H308          H  0.1989062  0.0747359  0.9061835    0.00000       Uiso       1.00
      C483          C  0.2389919  0.0432148  0.0637777    0.00000       Uiso       1.00
      C484          C  0.2412135  0.0313399  0.0824529    0.00000       Uiso       1.00
      C485          C  0.2337471  0.0656497  0.0608811    0.00000       Uiso       1.00
      C486          C  0.2306743  0.0760815  0.0766564    0.00000       Uiso       1.00
      C487          C  0.2327460  0.0645004  0.0955785    0.00000       Uiso       1.00
      C488          C  0.2380286  0.0419780  0.0981649    0.00000       Uiso       1.00
      H309          H  0.2400783  0.0325097  0.1122027    0.00000       Uiso       1.00
      H310          H  0.2263571  0.0933699  0.0742894    0.00000       Uiso       1.00
      C489          C  0.2177922  0.9357760  0.0427685    0.00000       Uiso       1.00
      C490          C  0.2274457  0.9171006  0.0308937    0.00000       Uiso       1.00
      C491          C  0.2006020  0.9386728  0.0652033    0.00000       Uiso       1.00
      C492          C  0.1932429  0.9228975  0.0756351    0.00000       Uiso       1.00
      C493          C  0.2027526  0.9039751  0.0640541    0.00000       Uiso       1.00
      C494          C  0.2199925  0.9013886  0.0415318    0.00000       Uiso       1.00
      H311          H  0.2274113  0.8873507  0.0320635    0.00000       Uiso       1.00
      H312          H  0.1802716  0.9252647  0.0929234    0.00000       Uiso       1.00
      C495          C  0.3410272  0.9910966  0.9141791    0.00000       Uiso       1.00
      C496          C  0.3180970  0.0015525  0.9298572    0.00000       Uiso       1.00
      C497          C  0.3515120  0.9227827  0.9569895    0.00000       Uiso       1.00
      C498          C  0.3285680  0.9332284  0.9725888    0.00000       Uiso       1.00
      C499          C  0.2317299  0.0772178  0.0421182    0.00000       Uiso       1.00
      C500          C  0.2348309  0.0667722  0.0265188    0.00000       Uiso       1.00
      C501          C  0.1910509  0.9574358  0.0767713    0.00000       Uiso       1.00
      C502          C  0.1983954  0.9730352  0.0663257    0.00000       Uiso       1.00
      C503          C  0.2443463  0.9146252  0.0084576    0.00000       Uiso       1.00
      C504          C  0.2515985  0.9303039  0.9980015    0.00000       Uiso       1.00
      H313          H  0.2520001  0.9005083  0.9989166    0.00000       Uiso       1.00
      H314          H  0.2646584  0.9278055  0.9807128    0.00000       Uiso       1.00
      H315          H  0.1778147  0.9600935  0.0939858    0.00000       Uiso       1.00
      H316          H  0.1906430  0.9872500  0.0757964    0.00000       Uiso       1.00
      H317          H  0.3221057  0.9237576  0.9868036    0.00000       Uiso       1.00
      H318          H  0.3620905  0.9055682  0.9596471    0.00000       Uiso       1.00
      H319          H  0.3075355  0.0188413  0.9273589    0.00000       Uiso       1.00
      H320          H  0.3474909  0.0006375  0.9000618    0.00000       Uiso       1.00
      H321          H  0.2331125  0.0762429  0.0123041    0.00000       Uiso       1.00
      H322          H  0.2277513  0.0944324  0.0394607    0.00000       Uiso       1.00
      C505          C  0.2856976  0.0002162  0.9641618    0.00000       Uiso       1.00
      C506          C  0.2759158  0.9883192  0.9823792    0.00000       Uiso       1.00
      C507          C  0.2909082  0.9660983  0.9854067    0.00000       Uiso       1.00
      C508          C  0.3141056  0.9555325  0.9698536    0.00000       Uiso       1.00
      C509          C  0.3230871  0.9673771  0.9511681    0.00000       Uiso       1.00
      C510          C  0.3088517  0.9898582  0.9484208    0.00000       Uiso       1.00
      H323          H  0.2751499  0.0176210  0.9620512    0.00000       Uiso       1.00
      H324          H  0.2845199  0.9568682  0.9999225    0.00000       Uiso       1.00
      C511          C  0.2357644  0.0171748  0.9878722    0.00000       Uiso       1.00
      C512          C  0.2140858  0.0353922  0.9997688    0.00000       Uiso       1.00
      C513          C  0.2429928  0.0141473  0.9656514    0.00000       Uiso       1.00
      C514          C  0.2303613  0.0297005  0.9550855    0.00000       Uiso       1.00
      C515          C  0.2095350  0.0483860  0.9669301    0.00000       Uiso       1.00
      C516          C  0.2012894  0.0511332  0.9894112    0.00000       Uiso       1.00
      H325          H  0.2072285  0.0375023  0.0171743    0.00000       Uiso       1.00
      H326          H  0.2586113  0.9996311  0.9564213    0.00000       Uiso       1.00
      C517          C  0.2470603  0.0116812  0.0167281    0.00000       Uiso       1.00
      C518          C  0.2505216  0.9997842  0.0349455    0.00000       Uiso       1.00
      C519          C  0.2428592  0.0339021  0.0137008    0.00000       Uiso       1.00
      C520          C  0.2399375  0.0444680  0.0292539    0.00000       Uiso       1.00
      C521          C  0.2420785  0.0326233  0.0479393    0.00000       Uiso       1.00
      C522          C  0.2475770  0.0101422  0.0506864    0.00000       Uiso       1.00
      H327          H  0.2552682  0.9823794  0.0370560    0.00000       Uiso       1.00
      H328          H  0.2417567  0.0431328  0.9991843    0.00000       Uiso       1.00
      C523          C  0.2412574  0.9828256  0.0112350    0.00000       Uiso       1.00
      C524          C  0.2496931  0.9646086  0.9993377    0.00000       Uiso       1.00
      C525          C  0.2232375  0.9858531  0.0334558    0.00000       Uiso       1.00
      C526          C  0.2155932  0.9703000  0.0440216    0.00000       Uiso       1.00
      C527          C  0.2252971  0.9516144  0.0321770    0.00000       Uiso       1.00
      C528          C  0.2422798  0.9488671  0.0096961    0.00000       Uiso       1.00
      H329          H  0.2623515  0.9624979  0.9819330    0.00000       Uiso       1.00
      H330          H  0.2151099  0.0003693  0.0426859    0.00000       Uiso       1.00
      C529          C  0.1803500  0.0696964  0.0011057    0.00000       Uiso       1.00
      C530          C  0.1678755  0.0853750  0.9906496    0.00000       Uiso       1.00
      C531          C  0.2382029  0.0269653  0.9327814    0.00000       Uiso       1.00
      C532          C  0.2257046  0.0425646  0.9223357    0.00000       Uiso       1.00
      C533          C  0.2499528  0.9984478  0.0692500    0.00000       Uiso       1.00
      C534          C  0.2467494  0.0089037  0.0849281    0.00000       Uiso       1.00
      H331          H  0.1518712  0.0994919  0.0001906    0.00000       Uiso       1.00
      H332          H  0.1736228  0.0721947  0.0183944    0.00000       Uiso       1.00
      H333          H  0.2541360  0.0127505  0.9233107    0.00000       Uiso       1.00
      H334          H  0.2323405  0.0399070  0.9051213    0.00000       Uiso       1.00
      H335          H  0.2541820  0.9811590  0.0717482    0.00000       Uiso       1.00
      H336          H  0.2486364  0.9993628  0.0990454    0.00000       Uiso       1.00
      C535          C  0.6517220  0.6204591  0.3082201    0.00000       Uiso       1.00
      C536          C  0.6641061  0.6253585  0.2860298    0.00000       Uiso       1.00
      C537          C  0.6664802  0.6187205  0.2684044    0.00000       Uiso       1.00
      C538          C  0.6797644  0.6229388  0.2463409    0.00000       Uiso       1.00
      C539          C  0.6921762  0.6325939  0.2412643    0.00000       Uiso       1.00
      C540          C  0.6898155  0.6389146  0.2591951    0.00000       Uiso       1.00
      C541          C  0.6746283  0.6370894  0.2815168    0.00000       Uiso       1.00
        O1          O  0.6412400  0.6083219  0.3154636    0.00000       Uiso       1.00
      H337          H  0.7008227  0.6440505  0.2558323    0.00000       Uiso       1.00
      C542          C  0.7103236  0.7229979  0.2944375    0.00000       Uiso       1.00
      C543          C  0.7005220  0.7106194  0.2993465    0.00000       Uiso       1.00
      C544          C  0.6853274  0.7082589  0.3212535    0.00000       Uiso       1.00
      C545          C  0.6763803  0.6950843  0.3258824    0.00000       Uiso       1.00
      C546          C  0.6835396  0.6827819  0.3089001    0.00000       Uiso       1.00
      C547          C  0.6991491  0.6850823  0.2869990    0.00000       Uiso       1.00
      C548          C  0.7064314  0.7001586  0.2816470    0.00000       Uiso       1.00
        O2          O  0.7069654  0.7334904  0.3098922    0.00000       Uiso       1.00
      H338          H  0.6803057  0.7168438  0.3347023    0.00000       Uiso       1.00
      H339          H  0.6639969  0.6945298  0.3428517    0.00000       Uiso       1.00
      H340          H  0.7066846  0.6741410  0.2742095    0.00000       Uiso       1.00
      C549          C  0.7549357  0.6645212  0.1471916    0.00000       Uiso       1.00
      C550          C  0.7500654  0.6743065  0.1644491    0.00000       Uiso       1.00
      C551          C  0.7567974  0.6894917  0.1600849    0.00000       Uiso       1.00
      C552          C  0.7525093  0.6984290  0.1775607    0.00000       Uiso       1.00
      C553          C  0.7426891  0.6912691  0.1996846    0.00000       Uiso       1.00
      C554          C  0.7363673  0.6756783  0.2036820    0.00000       Uiso       1.00
      C555          C  0.7382758  0.6684121  0.1866819    0.00000       Uiso       1.00
        O3          O  0.7669777  0.6679921  0.1246194    0.00000       Uiso       1.00
      H341          H  0.7652183  0.6944997  0.1430677    0.00000       Uiso       1.00
      H342          H  0.7571177  0.7107985  0.1735070    0.00000       Uiso       1.00
      H343          H  0.7311095  0.6681217  0.2198624    0.00000       Uiso       1.00
      C556          C  0.7484147  0.6495152  0.1514256    0.00000       Uiso       1.00
      C557          C  0.7358495  0.6440607  0.1732501    0.00000       Uiso       1.00
      C558          C  0.7291227  0.6288399  0.1776775    0.00000       Uiso       1.00
      C559          C  0.7157606  0.6244259  0.1996033    0.00000       Uiso       1.00
      C560          C  0.7075722  0.6361845  0.2175861    0.00000       Uiso       1.00
      C561          C  0.7142565  0.6516654  0.2128094    0.00000       Uiso       1.00
      C562          C  0.7296889  0.6545107  0.1911326    0.00000       Uiso       1.00
        O4          O  0.7550170  0.6416004  0.1321121    0.00000       Uiso       1.00
      H344          H  0.7064032  0.6625313  0.2258105    0.00000       Uiso       1.00
      C563          C  0.7253060  0.7252743  0.2729186    0.00000       Uiso       1.00
      C564          C  0.7307561  0.7160190  0.2549143    0.00000       Uiso       1.00
      C565          C  0.7459685  0.7183765  0.2330178    0.00000       Uiso       1.00
      C566          C  0.7505410  0.7097012  0.2151781    0.00000       Uiso       1.00
      C567          C  0.7389072  0.6997590  0.2186947    0.00000       Uiso       1.00
      C568          C  0.7233564  0.6979005  0.2408420    0.00000       Uiso       1.00
      C569          C  0.7203713  0.7042557  0.2591589    0.00000       Uiso       1.00
        O5          O  0.7333511  0.7379072  0.2714899    0.00000       Uiso       1.00
      H345          H  0.7544175  0.7267985  0.2298680    0.00000       Uiso       1.00
      H346          H  0.7631013  0.7110283  0.1986929    0.00000       Uiso       1.00
      H347          H  0.7125613  0.6926514  0.2438261    0.00000       Uiso       1.00
      C570          C  0.6495004  0.6269799  0.3254650    0.00000       Uiso       1.00
      C571          C  0.6587616  0.6395221  0.3216687    0.00000       Uiso       1.00
      C572          C  0.6564152  0.6461909  0.3392428    0.00000       Uiso       1.00
      C573          C  0.6650935  0.6594515  0.3351606    0.00000       Uiso       1.00
      C574          C  0.6750373  0.6675674  0.3135945    0.00000       Uiso       1.00
      C575          C  0.6768937  0.6609705  0.2961828    0.00000       Uiso       1.00
      C576          C  0.6705254  0.6456495  0.2995463    0.00000       Uiso       1.00
        O6          O  0.6369436  0.6203284  0.3461703    0.00000       Uiso       1.00
      H348          H  0.6479935  0.6408763  0.3560958    0.00000       Uiso       1.00
      H349          H  0.6637650  0.6633624  0.3490555    0.00000       Uiso       1.00
      H350          H  0.6821435  0.6687573  0.2801338    0.00000       Uiso       1.00
        B1          B  0.6319081  0.6084059  0.3395164    0.00000       Uiso       1.00
        B2          B  0.7216324  0.7429591  0.2950984    0.00000       Uiso       1.00
        B3          B  0.7668036  0.6533781  0.1152676    0.00000       Uiso       1.00
      H351          H  0.6579173  0.6104085  0.2716797    0.00000       Uiso       1.00
      H352          H  0.6803514  0.6183222  0.2333915    0.00000       Uiso       1.00
      H353          H  0.7343480  0.6201925  0.1641824    0.00000       Uiso       1.00
      H354          H  0.7117733  0.6119085  0.2022145    0.00000       Uiso       1.00
      C577          C  0.5804014  0.3795410  0.6917796    0.00000       Uiso       1.00
      C578          C  0.5754945  0.3746416  0.7139699    0.00000       Uiso       1.00
      C579          C  0.5536054  0.3812795  0.7315953    0.00000       Uiso       1.00
      C580          C  0.5490443  0.3770614  0.7536588    0.00000       Uiso       1.00
      C581          C  0.5660346  0.3674062  0.7587355    0.00000       Uiso       1.00
      C582          C  0.5879254  0.3610855  0.7408047    0.00000       Uiso       1.00
      C583          C  0.5932347  0.3629107  0.7184830    0.00000       Uiso       1.00
        O7          O  0.5650257  0.3916782  0.6845361    0.00000       Uiso       1.00
      H355          H  0.6007056  0.3559496  0.7441676    0.00000       Uiso       1.00
      C584          C  0.7277591  0.2770022  0.7055627    0.00000       Uiso       1.00
      C585          C  0.7104880  0.2893806  0.7006536    0.00000       Uiso       1.00
      C586          C  0.7148398  0.2917412  0.6787466    0.00000       Uiso       1.00
      C587          C  0.6973470  0.3049158  0.6741177    0.00000       Uiso       1.00
      C588          C  0.6752216  0.3172182  0.6910999    0.00000       Uiso       1.00
      C589          C  0.6712306  0.3149178  0.7130010    0.00000       Uiso       1.00
      C590          C  0.6882370  0.2998415  0.7183531    0.00000       Uiso       1.00
        O8          O  0.7503480  0.2665097  0.6901080    0.00000       Uiso       1.00
      H356          H  0.7318518  0.2831563  0.6652978    0.00000       Uiso       1.00
      H357          H  0.7013786  0.3054702  0.6571482    0.00000       Uiso       1.00
      H358          H  0.6550353  0.3258590  0.7257905    0.00000       Uiso       1.00
      C591          C  0.5666488  0.3354788  0.8528082    0.00000       Uiso       1.00
      C592          C  0.5888210  0.3256936  0.8355509    0.00000       Uiso       1.00
      C593          C  0.6063741  0.3105084  0.8399152    0.00000       Uiso       1.00
      C594          C  0.6284991  0.3015711  0.8224393    0.00000       Uiso       1.00
      C595          C  0.6336429  0.3087310  0.8003154    0.00000       Uiso       1.00
      C596          C  0.6157277  0.3243219  0.7963180    0.00000       Uiso       1.00
      C597          C  0.5933700  0.3315880  0.8133180    0.00000       Uiso       1.00
        O9          O  0.5595893  0.3320080  0.8753805    0.00000       Uiso       1.00
      H359          H  0.6027858  0.3055004  0.8569323    0.00000       Uiso       1.00
      H360          H  0.6414233  0.2892016  0.8264931    0.00000       Uiso       1.00
      H361          H  0.6190937  0.3318784  0.7801375    0.00000       Uiso       1.00
      C598          C  0.5493556  0.3504850  0.8485743    0.00000       Uiso       1.00
      C599          C  0.5531604  0.3559394  0.8267497    0.00000       Uiso       1.00
      C600          C  0.5356403  0.3711602  0.8223222    0.00000       Uiso       1.00
      C601          C  0.5397901  0.3755741  0.8003964    0.00000       Uiso       1.00
      C602          C  0.5613429  0.3638156  0.7824137    0.00000       Uiso       1.00
      C603          C  0.5787314  0.3483347  0.7871905    0.00000       Uiso       1.00
      C604          C  0.5753324  0.3454894  0.8088673    0.00000       Uiso       1.00
       O10          O  0.5287298  0.3583997  0.8678878    0.00000       Uiso       1.00
      H362          H  0.5947450  0.3374689  0.7741894    0.00000       Uiso       1.00
      C605          C  0.7234988  0.2747258  0.7270816    0.00000       Uiso       1.00
      C606          C  0.7016895  0.2839810  0.7450858    0.00000       Uiso       1.00
      C607          C  0.6973629  0.2816235  0.7669824    0.00000       Uiso       1.00
      C608          C  0.6754204  0.2902988  0.7848220    0.00000       Uiso       1.00
      C609          C  0.6573609  0.3002411  0.7813054    0.00000       Uiso       1.00
      C610          C  0.6620989  0.3020996  0.7591581    0.00000       Uiso       1.00
      C611          C  0.6837860  0.2957444  0.7408411    0.00000       Uiso       1.00
       O11          O  0.7427481  0.2620929  0.7285103    0.00000       Uiso       1.00
      H363          H  0.7110841  0.2732015  0.7701321    0.00000       Uiso       1.00
      H364          H  0.6728227  0.2889717  0.8013072    0.00000       Uiso       1.00
      H365          H  0.6490389  0.3073487  0.7561738    0.00000       Uiso       1.00
      C612          C  0.6019455  0.3730201  0.6745348    0.00000       Uiso       1.00
      C613          C  0.6199525  0.3604779  0.6783311    0.00000       Uiso       1.00
      C614          C  0.6418492  0.3538091  0.6607570    0.00000       Uiso       1.00
      C615          C  0.6597056  0.3405486  0.6648393    0.00000       Uiso       1.00
      C616          C  0.6561993  0.3324327  0.6864054    0.00000       Uiso       1.00
      C617          C  0.6340472  0.3390296  0.7038171    0.00000       Uiso       1.00
      C618          C  0.6157212  0.3543506  0.7004536    0.00000       Uiso       1.00
       O12          O  0.6034425  0.3796717  0.6538295    0.00000       Uiso       1.00
      H366          H  0.6449658  0.3591238  0.6439040    0.00000       Uiso       1.00
      H367          H  0.6761830  0.3366377  0.6509444    0.00000       Uiso       1.00
      H368          H  0.6310346  0.3312428  0.7198662    0.00000       Uiso       1.00
        B4          B  0.5798306  0.3915941  0.6604834    0.00000       Uiso       1.00
        B5          B  0.7596900  0.2570409  0.7049018    0.00000       Uiso       1.00
        B6          B  0.5354495  0.3466219  0.8847323    0.00000       Uiso       1.00
      H369          H  0.5400059  0.3895915  0.7283199    0.00000       Uiso       1.00
      H370          H  0.5320653  0.3816779  0.7666081    0.00000       Uiso       1.00
      H371          H  0.5187232  0.3798075  0.8358173    0.00000       Uiso       1.00
      H372          H  0.5258965  0.3880916  0.7977853    0.00000       Uiso       1.00
      C619          C  0.5957466  0.1472404  0.3375278    0.00000       Uiso       1.00
      C620          C  0.5818402  0.1645063  0.3292527    0.00000       Uiso       1.00
      C621          C  0.5752481  0.1601852  0.3182763    0.00000       Uiso       1.00
      C622          C  0.5622075  0.1776718  0.3091898    0.00000       Uiso       1.00
      C623          C  0.5566287  0.1997325  0.3096621    0.00000       Uiso       1.00
      C624          C  0.5636627  0.2037020  0.3205477    0.00000       Uiso       1.00
      C625          C  0.5746977  0.1867254  0.3318503    0.00000       Uiso       1.00
       O13          O  0.6046751  0.1246753  0.3357548    0.00000       Uiso       1.00
      H373          H  0.5801801  0.1431987  0.3169001    0.00000       Uiso       1.00
      H374          H  0.5567476  0.1736916  0.3016753    0.00000       Uiso       1.00
      H375          H  0.5617222  0.2198351  0.3191234    0.00000       Uiso       1.00
      C626          C  0.5374467  0.3082354  0.3820261    0.00000       Uiso       1.00
      C627          C  0.5457317  0.2860578  0.3786505    0.00000       Uiso       1.00
      C628          C  0.5567160  0.2684944  0.3895530    0.00000       Uiso       1.00
      C629          C  0.5658123  0.2463712  0.3850916    0.00000       Uiso       1.00
      C630          C  0.5653421  0.2412643  0.3686052    0.00000       Uiso       1.00
      C631          C  0.5544487  0.2591788  0.3576126    0.00000       Uiso       1.00
      C632          C  0.5431362  0.2815115  0.3635687    0.00000       Uiso       1.00
       O14          O  0.5392165  0.3153918  0.3956698    0.00000       Uiso       1.00
      H376          H  0.5580905  0.2720517  0.4016109    0.00000       Uiso       1.00
      H377          H  0.5733327  0.2334004  0.3945236    0.00000       Uiso       1.00
      H378          H  0.5558744  0.2558145  0.3434177    0.00000       Uiso       1.00
      C633          C  0.4929545  0.2944142  0.2792984    0.00000       Uiso       1.00
      C634          C  0.4963279  0.2993252  0.2931970    0.00000       Uiso       1.00
      C635          C  0.4854155  0.3212073  0.2997909    0.00000       Uiso       1.00
      C636          C  0.4898751  0.3258440  0.3128238    0.00000       Uiso       1.00
      C637          C  0.5063692  0.3088947  0.3183930    0.00000       Uiso       1.00
      C638          C  0.5173716  0.2870136  0.3113572    0.00000       Uiso       1.00
      C639          C  0.5114176  0.2816547  0.3003297    0.00000       Uiso       1.00
       O15          O  0.4793037  0.3098213  0.2703800    0.00000       Uiso       1.00
      H379          H  0.4733514  0.3346348  0.2948664    0.00000       Uiso       1.00
      H380          H  0.4804357  0.3427920  0.3182855    0.00000       Uiso       1.00
      H381          H  0.5315722  0.2742510  0.3132905    0.00000       Uiso       1.00
      C640          C  0.5040437  0.2729613  0.2724469    0.00000       Uiso       1.00
      C641          C  0.5181246  0.2549546  0.2801722    0.00000       Uiso       1.00
      C642          C  0.5290292  0.2330640  0.2736058    0.00000       Uiso       1.00
      C643          C  0.5421614  0.2152112  0.2824171    0.00000       Uiso       1.00
      C644          C  0.5435669  0.2187306  0.2990340    0.00000       Uiso       1.00
      C645          C  0.5322501  0.2408734  0.3056140    0.00000       Uiso       1.00
      C646          C  0.5209569  0.2591829  0.2952360    0.00000       Uiso       1.00
       O16          O  0.4989819  0.2715712  0.2582542    0.00000       Uiso       1.00
      H382          H  0.5273744  0.2299248  0.2615439    0.00000       Uiso       1.00
      H383          H  0.5509806  0.1987095  0.2762321    0.00000       Uiso       1.00
      H384          H  0.5310728  0.2438689  0.3198191    0.00000       Uiso       1.00
      C647          C  0.5270688  0.3254508  0.3709465    0.00000       Uiso       1.00
      C648          C  0.5231286  0.3216562  0.3568735    0.00000       Uiso       1.00
      C649          C  0.5121279  0.3392088  0.3459787    0.00000       Uiso       1.00
      C650          C  0.5073937  0.3351221  0.3328542    0.00000       Uiso       1.00
      C651          C  0.5123196  0.3135832  0.3314468    0.00000       Uiso       1.00
      C652          C  0.5231602  0.2961769  0.3427539    0.00000       Uiso       1.00
      C653          C  0.5301896  0.2995363  0.3540392    0.00000       Uiso       1.00
       O17          O  0.5206188  0.3460902  0.3760088    0.00000       Uiso       1.00
      H385          H  0.5073333  0.3560618  0.3476355    0.00000       Uiso       1.00
      H386          H  0.4996997  0.3489904  0.3240426    0.00000       Uiso       1.00
      H387          H  0.5249799  0.2801540  0.3439299    0.00000       Uiso       1.00
      C654          C  0.6025966  0.1514808  0.3478980    0.00000       Uiso       1.00
      C655          C  0.5948617  0.1732835  0.3518401    0.00000       Uiso       1.00
      C656          C  0.6014265  0.1776246  0.3628327    0.00000       Uiso       1.00
      C657          C  0.5926055  0.1995642  0.3675689    0.00000       Uiso       1.00
      C658          C  0.5759805  0.2175791  0.3626529    0.00000       Uiso       1.00
      C659          C  0.5694022  0.2128394  0.3518201    0.00000       Uiso       1.00
      C660          C  0.5797898  0.1911730  0.3447890    0.00000       Uiso       1.00
       O18          O  0.6167982  0.1322323  0.3543386    0.00000       Uiso       1.00
      H388          H  0.6134948  0.1639137  0.3676199    0.00000       Uiso       1.00
      H389          H  0.5987894  0.2022012  0.3752564    0.00000       Uiso       1.00
      H390          H  0.5551910  0.2258609  0.3500076    0.00000       Uiso       1.00
        B7          B  0.6180053  0.1153078  0.3465161    0.00000       Uiso       1.00
        B8          B  0.5284442  0.3394783  0.3917239    0.00000       Uiso       1.00
        B9          B  0.4832563  0.2951047  0.2570545    0.00000       Uiso       1.00
      C661          C  0.0805152  0.8527598  0.6624710    0.00000       Uiso       1.00
      C662          C  0.0755999  0.8354938  0.6707460    0.00000       Uiso       1.00
      C663          C  0.0537102  0.8398150  0.6817223    0.00000       Uiso       1.00
      C664          C  0.0490697  0.8223283  0.6908088    0.00000       Uiso       1.00
      C665          C  0.0660239  0.8002676  0.6903366    0.00000       Uiso       1.00
      C666          C  0.0879130  0.7962981  0.6794510    0.00000       Uiso       1.00
      C667          C  0.0932740  0.8132747  0.6681485    0.00000       Uiso       1.00
       O19          O  0.0651057  0.8753248  0.6642440    0.00000       Uiso       1.00
      H391          H  0.0402796  0.8568014  0.6830985    0.00000       Uiso       1.00
      H392          H  0.0321151  0.8263085  0.6983233    0.00000       Uiso       1.00
      H393          H  0.1006813  0.7801650  0.6808752    0.00000       Uiso       1.00
      C668          C  0.2277088  0.6917647  0.6179729    0.00000       Uiso       1.00
      C669          C  0.2104405  0.7139423  0.6213484    0.00000       Uiso       1.00
      C670          C  0.2147639  0.7315058  0.6104459    0.00000       Uiso       1.00
      C671          C  0.1972757  0.7536289  0.6149073    0.00000       Uiso       1.00
      C672          C  0.1752121  0.7587358  0.6313937    0.00000       Uiso       1.00
      C673          C  0.1712405  0.7408213  0.6423863    0.00000       Uiso       1.00
      C674          C  0.1882169  0.7184886  0.6364301    0.00000       Uiso       1.00
       O20          O  0.2502786  0.6846083  0.6043291    0.00000       Uiso       1.00
      H394          H  0.2317536  0.7279484  0.5983880    0.00000       Uiso       1.00
      H395          H  0.2012571  0.7665997  0.6054753    0.00000       Uiso       1.00
      H396          H  0.1551072  0.7441856  0.6565811    0.00000       Uiso       1.00
      C675          C  0.0666678  0.7055860  0.7207001    0.00000       Uiso       1.00
      C676          C  0.0888508  0.7006749  0.7068015    0.00000       Uiso       1.00
      C677          C  0.1064145  0.6787928  0.7002076    0.00000       Uiso       1.00
      C678          C  0.1285436  0.6741561  0.6871748    0.00000       Uiso       1.00
      C679          C  0.1336577  0.6911054  0.6816056    0.00000       Uiso       1.00
      C680          C  0.1157430  0.7129865  0.6886415    0.00000       Uiso       1.00
      C681          C  0.0934028  0.7183454  0.6996689    0.00000       Uiso       1.00
       O21          O  0.0595058  0.6901789  0.7296185    0.00000       Uiso       1.00
      H397          H  0.1028533  0.6653654  0.7051321    0.00000       Uiso       1.00
      H398          H  0.1415139  0.6572081  0.6817131    0.00000       Uiso       1.00
      H399          H  0.1191144  0.7257491  0.6867082    0.00000       Uiso       1.00
      C682          C  0.0494528  0.7270387  0.7275516    0.00000       Uiso       1.00
      C683          C  0.0532522  0.7450455  0.7198263    0.00000       Uiso       1.00
      C684          C  0.0356997  0.7669362  0.7263927    0.00000       Uiso       1.00
      C685          C  0.0397904  0.7847889  0.7175815    0.00000       Uiso       1.00
      C686          C  0.0613322  0.7812695  0.7009646    0.00000       Uiso       1.00
      C687          C  0.0787381  0.7591267  0.6943847    0.00000       Uiso       1.00
      C688          C  0.0753765  0.7408172  0.7047626    0.00000       Uiso       1.00
       O22          O  0.0288081  0.7284289  0.7417442    0.00000       Uiso       1.00
      H400          H  0.0188437  0.7700754  0.7384546    0.00000       Uiso       1.00
      H401          H  0.0259228  0.8012906  0.7237665    0.00000       Uiso       1.00
      H402          H  0.0947614  0.7561312  0.6801795    0.00000       Uiso       1.00
      C689          C  0.2234667  0.6745493  0.6290524    0.00000       Uiso       1.00
      C690          C  0.2016588  0.6783440  0.6431254    0.00000       Uiso       1.00
      C691          C  0.1973160  0.6607913  0.6540201    0.00000       Uiso       1.00
      C692          C  0.1753705  0.6648780  0.6671446    0.00000       Uiso       1.00
      C693          C  0.1573501  0.6864169  0.6685519    0.00000       Uiso       1.00
      C694          C  0.1620916  0.7038232  0.6572448    0.00000       Uiso       1.00
      C695          C  0.1837657  0.7004638  0.6459596    0.00000       Uiso       1.00
       O23          O  0.2427183  0.6539099  0.6239901    0.00000       Uiso       1.00
      H403          H  0.2110310  0.6439383  0.6523634    0.00000       Uiso       1.00
      H404          H  0.1727333  0.6510097  0.6759561    0.00000       Uiso       1.00
      H405          H  0.1490645  0.7198461  0.6560688    0.00000       Uiso       1.00
      C696          C  0.1019760  0.8485193  0.6521007    0.00000       Uiso       1.00
      C697          C  0.1199859  0.8267166  0.6481587    0.00000       Uiso       1.00
      C698          C  0.1418844  0.8223755  0.6371661    0.00000       Uiso       1.00
      C699          C  0.1597390  0.8004359  0.6324300    0.00000       Uiso       1.00
      C700          C  0.1562129  0.7824211  0.6373460    0.00000       Uiso       1.00
      C701          C  0.1340622  0.7871608  0.6481787    0.00000       Uiso       1.00
      C702          C  0.1157522  0.8088272  0.6552098    0.00000       Uiso       1.00
       O24          O  0.1033696  0.8677678  0.6456602    0.00000       Uiso       1.00
      H406          H  0.1450288  0.8360864  0.6323791    0.00000       Uiso       1.00
      H407          H  0.1762476  0.7977989  0.6247425    0.00000       Uiso       1.00
      H408          H  0.1310600  0.7741393  0.6499912    0.00000       Uiso       1.00
       B10          B  0.0798297  0.8846923  0.6534827    0.00000       Uiso       1.00
       B11          B  0.2596469  0.6605218  0.6082751    0.00000       Uiso       1.00
       B12          B  0.0354162  0.7048954  0.7429439    0.00000       Uiso       1.00
      C703          C  0.9952412  0.3530169  0.8347847    0.00000       Uiso       1.00
      C704          C  0.0001286  0.3357433  0.8249729    0.00000       Uiso       1.00
      C705          C  0.9934729  0.3400149  0.8097333    0.00000       Uiso       1.00
      C706          C  0.9976792  0.3225224  0.8009482    0.00000       Uiso       1.00
      C707          C  0.0073398  0.3004578  0.8082659    0.00000       Uiso       1.00
      C708          C  0.0136783  0.2964898  0.8238244    0.00000       Uiso       1.00
      C709          C  0.0118655  0.3134922  0.8309641    0.00000       Uiso       1.00
       O25          O  0.9831005  0.3756329  0.8315631    0.00000       Uiso       1.00
      H409          H  0.0188185  0.2803482  0.8314558    0.00000       Uiso       1.00
      C710          C  0.0978399  0.1918826  0.8794657    0.00000       Uiso       1.00
      C711          C  0.0854559  0.2140605  0.8745907    0.00000       Uiso       1.00
      C712          C  0.0831071  0.2316060  0.8813090    0.00000       Uiso       1.00
      C713          C  0.0699268  0.2537256  0.8770084    0.00000       Uiso       1.00
      C714          C  0.0576068  0.2588762  0.8671978    0.00000       Uiso       1.00
      C715          C  0.0598957  0.2409761  0.8608999    0.00000       Uiso       1.00
      C716          C  0.0749772  0.2186199  0.8628126    0.00000       Uiso       1.00
       O26          O  0.1083494  0.1847415  0.8915489    0.00000       Uiso       1.00
      H410          H  0.0917056  0.2280367  0.8897269    0.00000       Uiso       1.00
      H411          H  0.0693817  0.2666558  0.8815985    0.00000       Uiso       1.00
      H412          H  0.0489415  0.2443875  0.8556547    0.00000       Uiso       1.00
      C717          C  0.0392253  0.2058129  0.7769101    0.00000       Uiso       1.00
      C718          C  0.0490281  0.2008904  0.7892851    0.00000       Uiso       1.00
      C719          C  0.0642192  0.1789750  0.7916354    0.00000       Uiso       1.00
      C720          C  0.0731742  0.1743181  0.8048111    0.00000       Uiso       1.00
      C721          C  0.0660266  0.1912882  0.8171200    0.00000       Uiso       1.00
      C722          C  0.0504295  0.2131991  0.8148135    0.00000       Uiso       1.00
      C723          C  0.0431457  0.2185644  0.7997343    0.00000       Uiso       1.00
       O27          O  0.0426829  0.1903102  0.7663761    0.00000       Uiso       1.00
      H413          H  0.0692181  0.1655537  0.7830346    0.00000       Uiso       1.00
      H414          H  0.0855478  0.1573418  0.8053524    0.00000       Uiso       1.00
      H415          H  0.0428817  0.2260063  0.8257403    0.00000       Uiso       1.00
      C724          C  0.0242134  0.2273381  0.7746404    0.00000       Uiso       1.00
      C725          C  0.0187705  0.2453480  0.7839060    0.00000       Uiso       1.00
      C726          C  0.0035437  0.2672937  0.7816244    0.00000       Uiso       1.00
      C727          C  0.9991415  0.2850599  0.7901941    0.00000       Uiso       1.00
      C728          C  0.0109176  0.2814818  0.7999773    0.00000       Uiso       1.00
      C729          C  0.0264042  0.2593187  0.8018672    0.00000       Uiso       1.00
      C730          C  0.0292383  0.2410506  0.7956162    0.00000       Uiso       1.00
       O28          O  0.0162808  0.2286591  0.7619390    0.00000       Uiso       1.00
      H416          H  0.0372830  0.2563004  0.8070065    0.00000       Uiso       1.00
      C731          C  0.1001047  0.1746336  0.8729233    0.00000       Uiso       1.00
      C732          C  0.0908317  0.1784467  0.8603805    0.00000       Uiso       1.00
      C733          C  0.0931774  0.1608865  0.8536906    0.00000       Uiso       1.00
      C734          C  0.0844844  0.1649973  0.8404351    0.00000       Uiso       1.00
      C735          C  0.0745356  0.1865718  0.8323355    0.00000       Uiso       1.00
      C736          C  0.0726892  0.2039711  0.8389376    0.00000       Uiso       1.00
      C737          C  0.0790622  0.2005929  0.8542584    0.00000       Uiso       1.00
       O29          O  0.1127456  0.1539562  0.8795218    0.00000       Uiso       1.00
      H417          H  0.1016042  0.1440169  0.8589761    0.00000       Uiso       1.00
      H418          H  0.0858029  0.1511173  0.8365051    0.00000       Uiso       1.00
      H419          H  0.0674356  0.2200141  0.8311397    0.00000       Uiso       1.00
      C738          C  0.0017796  0.3487100  0.8497963    0.00000       Uiso       1.00
      C739          C  0.0143282  0.3269083  0.8552434    0.00000       Uiso       1.00
      C740          C  0.0210146  0.3225780  0.8704596    0.00000       Uiso       1.00
      C741          C  0.0342812  0.3006411  0.8750378    0.00000       Uiso       1.00
      C742          C  0.0423859  0.2825909  0.8634090    0.00000       Uiso       1.00
      C743          C  0.0357714  0.2873392  0.8478656    0.00000       Uiso       1.00
      C744          C  0.0204437  0.3090270  0.8448787    0.00000       Uiso       1.00
       O30          O  0.9951379  0.3679090  0.8579528    0.00000       Uiso       1.00
      H420          H  0.0157089  0.3363069  0.8788955    0.00000       Uiso       1.00
      H421          H  0.0382058  0.2980525  0.8875956    0.00000       Uiso       1.00
      H422          H  0.0435496  0.2743098  0.8370619    0.00000       Uiso       1.00
       B13          B  0.9832019  0.3848700  0.8462815    0.00000       Uiso       1.00
       B14          B  0.1178157  0.1606123  0.8914071    0.00000       Uiso       1.00
       B15          B  0.0280540  0.2051023  0.7568675    0.00000       Uiso       1.00
      H423          H  0.9851564  0.3568884  0.8044593    0.00000       Uiso       1.00
      H424          H  0.9930493  0.3265579  0.7885951    0.00000       Uiso       1.00
      H425          H  0.9948828  0.2707218  0.7733636    0.00000       Uiso       1.00
      H426          H  0.9866190  0.3015635  0.7888315    0.00000       Uiso       1.00
      C745          C  0.5218124  0.8821977  0.8085765    0.00000       Uiso       1.00
      C746          C  0.5390725  0.8788419  0.7863959    0.00000       Uiso       1.00
      C747          C  0.5347366  0.8897601  0.7688420    0.00000       Uiso       1.00
      C748          C  0.5522171  0.8853180  0.7467150    0.00000       Uiso       1.00
      C749          C  0.5742856  0.8688359  0.7415935    0.00000       Uiso       1.00
      C750          C  0.5782698  0.8578275  0.7594985    0.00000       Uiso       1.00
      C751          C  0.5613006  0.8637641  0.7818364    0.00000       Uiso       1.00
       O31          O  0.4992397  0.8958351  0.8157450    0.00000       Uiso       1.00
      H427          H  0.5177436  0.9018151  0.7724092    0.00000       Uiso       1.00
      H428          H  0.5482259  0.8947616  0.7337524    0.00000       Uiso       1.00
      H429          H  0.5944079  0.8436356  0.7561216    0.00000       Uiso       1.00
      C752          C  0.6828931  0.7794827  0.7946635    0.00000       Uiso       1.00
      C753          C  0.6607062  0.7933769  0.7995867    0.00000       Uiso       1.00
      C754          C  0.6431497  0.7999512  0.8214746    0.00000       Uiso       1.00
      C755          C  0.6210167  0.8129800  0.8261231    0.00000       Uiso       1.00
      C756          C  0.6158925  0.8185645  0.8091788    0.00000       Uiso       1.00
      C757          C  0.6338004  0.8115483  0.7872914    0.00000       Uiso       1.00
      C758          C  0.6561433  0.8005254  0.7819226    0.00000       Uiso       1.00
       O32          O  0.6900656  0.7705506  0.8100629    0.00000       Uiso       1.00
      H430          H  0.6467199  0.7950140  0.8348972    0.00000       Uiso       1.00
      H431          H  0.6080520  0.8184263  0.8430761    0.00000       Uiso       1.00
      H432          H  0.6304225  0.8134932  0.7745304    0.00000       Uiso       1.00
      C759          C  0.6689538  0.8378421  0.6475419    0.00000       Uiso       1.00
      C760          C  0.6738811  0.8295514  0.6648002    0.00000       Uiso       1.00
      C761          C  0.6957738  0.8185788  0.6604691    0.00000       Uiso       1.00
      C762          C  0.7004263  0.8094767  0.6779476    0.00000       Uiso       1.00
      C763          C  0.6834818  0.8099294  0.7000087    0.00000       Uiso       1.00
      C764          C  0.6615896  0.8208112  0.7039880    0.00000       Uiso       1.00
      C765          C  0.6562157  0.8321290  0.6870217    0.00000       Uiso       1.00
       O33          O  0.6843537  0.8360897  0.6249752    0.00000       Uiso       1.00
      H433          H  0.7091976  0.8172176  0.6434814    0.00000       Uiso       1.00
      H434          H  0.7173826  0.8019657  0.6739606    0.00000       Uiso       1.00
      H435          H  0.6488293  0.8193723  0.7201199    0.00000       Uiso       1.00
      C766          C  0.6474903  0.8482087  0.6517919    0.00000       Uiso       1.00
      C767          C  0.6294887  0.8521311  0.6735981    0.00000       Uiso       1.00
      C768          C  0.6075873  0.8631200  0.6779490    0.00000       Uiso       1.00
      C769          C  0.5897403  0.8678367  0.6998927    0.00000       Uiso       1.00
      C770          C  0.5932769  0.8629044  0.7179032    0.00000       Uiso       1.00
      C771          C  0.6154304  0.8520755  0.7131538    0.00000       Uiso       1.00
      C772          C  0.6337337  0.8450637  0.6914811    0.00000       Uiso       1.00
       O34          O  0.6460845  0.8546670  0.6325495    0.00000       Uiso       1.00
      H436          H  0.6044352  0.8679195  0.6642419    0.00000       Uiso       1.00
      H437          H  0.5732297  0.8755220  0.7025363    0.00000       Uiso       1.00
      H438          H  0.6184394  0.8502510  0.7261736    0.00000       Uiso       1.00
      C773          C  0.7001017  0.7726502  0.7732049    0.00000       Uiso       1.00
      C774          C  0.6962909  0.7803913  0.7552049    0.00000       Uiso       1.00
      C775          C  0.7138367  0.7738443  0.7333085    0.00000       Uiso       1.00
      C776          C  0.7097344  0.7826711  0.7154635    0.00000       Uiso       1.00
      C777          C  0.6881868  0.7992848  0.7189975    0.00000       Uiso       1.00
      C778          C  0.6707877  0.8058454  0.7411460    0.00000       Uiso       1.00
      C779          C  0.6741618  0.7954514  0.7594464    0.00000       Uiso       1.00
       O35          O  0.7207518  0.7584587  0.7718022    0.00000       Uiso       1.00
      H439          H  0.7306966  0.7617852  0.7301591    0.00000       Uiso       1.00
      H440          H  0.7235976  0.7765007  0.6989564    0.00000       Uiso       1.00
      H441          H  0.6547595  0.8200479  0.7441539    0.00000       Uiso       1.00
      C780          C  0.5260670  0.8711027  0.8257822    0.00000       Uiso       1.00
      C781          C  0.5478796  0.8570330  0.8219751    0.00000       Uiso       1.00
      C782          C  0.5522355  0.8461223  0.8395178    0.00000       Uiso       1.00
      C783          C  0.5741851  0.8330017  0.8354191    0.00000       Uiso       1.00
      C784          C  0.5921962  0.8316140  0.8138791    0.00000       Uiso       1.00
      C785          C  0.5874417  0.8429368  0.7964831    0.00000       Uiso       1.00
      C786          C  0.5657640  0.8542188  0.7998527    0.00000       Uiso       1.00
       O36          O  0.5068222  0.8761467  0.8464260    0.00000       Uiso       1.00
      H442          H  0.5385281  0.8477629  0.8563724    0.00000       Uiso       1.00
      H443          H  0.5768330  0.8241773  0.8492792    0.00000       Uiso       1.00
      H444          H  0.6004611  0.8441273  0.7804613    0.00000       Uiso       1.00
       B16          B  0.4898836  0.8918677  0.8398280    0.00000       Uiso       1.00
       B17          B  0.7141545  0.7572380  0.7953347    0.00000       Uiso       1.00
       B18          B  0.6696205  0.8468597  0.6156177    0.00000       Uiso       1.00
      C787          C  0.0223347  0.7947884  0.2231133    0.00000       Uiso       1.00
      C788          C  0.0396148  0.7997085  0.2107270    0.00000       Uiso       1.00
      C789          C  0.0353471  0.8215969  0.2083558    0.00000       Uiso       1.00
      C790          C  0.0528454  0.8261717  0.1950698    0.00000       Uiso       1.00
      C791          C  0.0749111  0.8091968  0.1826537    0.00000       Uiso       1.00
      C792          C  0.0788749  0.7873067  0.1850116    0.00000       Uiso       1.00
      C793          C  0.0618685  0.7819830  0.2001996    0.00000       Uiso       1.00
       O37          O  0.9997146  0.8101493  0.2336007    0.00000       Uiso       1.00
      H445          H  0.0950154  0.7745386  0.1740022    0.00000       Uiso       1.00
      C794          C  0.1834947  0.6475289  0.1644661    0.00000       Uiso       1.00
      C795          C  0.1613135  0.6647857  0.1742732    0.00000       Uiso       1.00
      C796          C  0.1437640  0.6604192  0.1894689    0.00000       Uiso       1.00
      C797          C  0.1216405  0.6778982  0.1984219    0.00000       Uiso       1.00
      C798          C  0.1164887  0.7000244  0.1912679    0.00000       Uiso       1.00
      C799          C  0.1343927  0.7040306  0.1756575    0.00000       Uiso       1.00
      C800          C  0.1567547  0.6870373  0.1683684    0.00000       Uiso       1.00
       O38          O  0.1906352  0.6249416  0.1678196    0.00000       Uiso       1.00
      H446          H  0.1473333  0.6434065  0.1944867    0.00000       Uiso       1.00
      H447          H  0.1087079  0.6738552  0.2108054    0.00000       Uiso       1.00
      H448          H  0.1309787  0.7202276  0.1681268    0.00000       Uiso       1.00
      C801          C  0.1695841  0.8086531  0.1198801    0.00000       Uiso       1.00
      C802          C  0.1745055  0.7864808  0.1247461    0.00000       Uiso       1.00
      C803          C  0.1964266  0.7689405  0.1180072    0.00000       Uiso       1.00
      C804          C  0.2010816  0.7468157  0.1222914    0.00000       Uiso       1.00
      C805          C  0.1841028  0.7416599  0.1321148    0.00000       Uiso       1.00
      C806          C  0.1621860  0.7595625  0.1384435    0.00000       Uiso       1.00
      C807          C  0.1568242  0.7819187  0.1365383    0.00000       Uiso       1.00
       O39          O  0.1850931  0.8157248  0.1078366    0.00000       Uiso       1.00
      H449          H  0.2098540  0.7725386  0.1095842    0.00000       Uiso       1.00
      H450          H  0.2180632  0.7339010  0.1176774    0.00000       Uiso       1.00
      H451          H  0.1493706  0.7561884  0.1437047    0.00000       Uiso       1.00
      C808          C  0.1480533  0.8259336  0.1264077    0.00000       Uiso       1.00
      C809          C  0.1300368  0.8221151  0.1389754    0.00000       Uiso       1.00
      C810          C  0.1080854  0.8396224  0.1457089    0.00000       Uiso       1.00
      C811          C  0.0903133  0.8354588  0.1590730    0.00000       Uiso       1.00
      C812          C  0.0938924  0.8139038  0.1672561    0.00000       Uiso       1.00
      C813          C  0.1160615  0.7965283  0.1605650    0.00000       Uiso       1.00
      C814          C  0.1343336  0.7999424  0.1451313    0.00000       Uiso       1.00
       O40          O  0.1467344  0.8465619  0.1198090    0.00000       Uiso       1.00
      H452          H  0.1190824  0.7805125  0.1684135    0.00000       Uiso       1.00
      C815          C  0.2007477  0.6518036  0.1494828    0.00000       Uiso       1.00
      C816          C  0.1969361  0.6736137  0.1440368    0.00000       Uiso       1.00
      C817          C  0.2145002  0.6779550  0.1288233    0.00000       Uiso       1.00
      C818          C  0.2103915  0.6998976  0.1242547    0.00000       Uiso       1.00
      C819          C  0.1888162  0.7179422  0.1358930    0.00000       Uiso       1.00
      C820          C  0.1714132  0.7131894  0.1514445    0.00000       Uiso       1.00
      C821          C  0.1747874  0.6915026  0.1544268    0.00000       Uiso       1.00
       O41          O  0.2214277  0.6325671  0.1414321    0.00000       Uiso       1.00
      H453          H  0.2313713  0.6642449  0.1203706    0.00000       Uiso       1.00
      H454          H  0.2242739  0.7025072  0.1116939    0.00000       Uiso       1.00
      H455          H  0.1553713  0.7262376  0.1622420    0.00000       Uiso       1.00
      C822          C  0.0266378  0.7732452  0.2253320    0.00000       Uiso       1.00
      C823          C  0.0484427  0.7552521  0.2160652    0.00000       Uiso       1.00
      C824          C  0.0527692  0.7333562  0.2184086    0.00000       Uiso       1.00
      C825          C  0.0747100  0.7155135  0.2097245    0.00000       Uiso       1.00
      C826          C  0.0927689  0.7190323  0.1997770    0.00000       Uiso       1.00
      C827          C  0.0880247  0.7411832  0.1979236    0.00000       Uiso       1.00
      C828          C  0.0663313  0.7594966  0.2042987    0.00000       Uiso       1.00
       O42          O  0.0074322  0.7717339  0.2378917    0.00000       Uiso       1.00
      H456          H  0.0390342  0.7302297  0.2268327    0.00000       Uiso       1.00
      H457          H  0.0772947  0.6990367  0.2110512    0.00000       Uiso       1.00
      H458          H  0.1010623  0.7442039  0.1926703    0.00000       Uiso       1.00
       B19          B  0.9904711  0.7953361  0.2429325    0.00000       Uiso       1.00
       B20          B  0.2147686  0.6156170  0.1531484    0.00000       Uiso       1.00
       B21          B  0.1702987  0.8398579  0.1080172    0.00000       Uiso       1.00
      H459          H  0.0184723  0.8351850  0.2169224    0.00000       Uiso       1.00
      H460          H  0.0488134  0.8431492  0.1944849    0.00000       Uiso       1.00
      H461          H  0.1046571  0.8565405  0.1404876    0.00000       Uiso       1.00
      H462          H  0.0738048  0.8493432  0.1630659    0.00000       Uiso       1.00
      C829          C  0.2125873  0.1178024  0.1914223    0.00000       Uiso       1.00
      C830          C  0.2043108  0.1211582  0.2136030    0.00000       Uiso       1.00
      C831          C  0.1933393  0.1102400  0.2311568    0.00000       Uiso       1.00
      C832          C  0.1842508  0.1146820  0.2532838    0.00000       Uiso       1.00
      C833          C  0.1847157  0.1311642  0.2584053    0.00000       Uiso       1.00
      C834          C  0.1955964  0.1421726  0.2405004    0.00000       Uiso       1.00
      C835          C  0.2069016  0.1362360  0.2181625    0.00000       Uiso       1.00
       O43          O  0.2108203  0.1041650  0.1842538    0.00000       Uiso       1.00
      H463          H  0.1919685  0.0981850  0.2275896    0.00000       Uiso       1.00
      H464          H  0.1767405  0.1052385  0.2662465    0.00000       Uiso       1.00
      H465          H  0.1941658  0.1563645  0.2438773    0.00000       Uiso       1.00
      C836          C  0.2570398  0.2205174  0.2053357    0.00000       Uiso       1.00
      C837          C  0.2536703  0.2066232  0.2004124    0.00000       Uiso       1.00
      C838          C  0.2645758  0.2000489  0.1785246    0.00000       Uiso       1.00
      C839          C  0.2601202  0.1870201  0.1738760    0.00000       Uiso       1.00
      C840          C  0.2436363  0.1814356  0.1908203    0.00000       Uiso       1.00
      C841          C  0.2326406  0.1884518  0.2127077    0.00000       Uiso       1.00
      C842          C  0.2385918  0.1994747  0.2180765    0.00000       Uiso       1.00
       O44          O  0.2706795  0.2294495  0.1899364    0.00000       Uiso       1.00
      H466          H  0.2766315  0.2049861  0.1651020    0.00000       Uiso       1.00
      H467          H  0.2695546  0.1815739  0.1569230    0.00000       Uiso       1.00
      H468          H  0.2184466  0.1865069  0.2254686    0.00000       Uiso       1.00
      C843          C  0.1543383  0.1621580  0.3524572    0.00000       Uiso       1.00
      C844          C  0.1682332  0.1704487  0.3351988    0.00000       Uiso       1.00
      C845          C  0.1748223  0.1814213  0.3395300    0.00000       Uiso       1.00
      C846          C  0.1878511  0.1905234  0.3220516    0.00000       Uiso       1.00
      C847          C  0.1934204  0.1900708  0.2999904    0.00000       Uiso       1.00
      C848          C  0.1863894  0.1791889  0.2960110    0.00000       Uiso       1.00
      C849          C  0.1753670  0.1678711  0.3129773    0.00000       Uiso       1.00
       O45          O  0.1454192  0.1639104  0.3750238    0.00000       Uiso       1.00
      H469          H  0.1698972  0.1827825  0.3565177    0.00000       Uiso       1.00
      H470          H  0.1933094  0.1980345  0.3260385    0.00000       Uiso       1.00
      H471          H  0.1883221  0.1806278  0.2798792    0.00000       Uiso       1.00
      C850          C  0.1474915  0.1517914  0.3482071    0.00000       Uiso       1.00
      C851          C  0.1552185  0.1478691  0.3264008    0.00000       Uiso       1.00
      C852          C  0.1486569  0.1368801  0.3220499    0.00000       Uiso       1.00
      C853          C  0.1574703  0.1321635  0.3001062    0.00000       Uiso       1.00
      C854          C  0.1740850  0.1370957  0.2820957    0.00000       Uiso       1.00
      C855          C  0.1806601  0.1479246  0.2868452    0.00000       Uiso       1.00
      C856          C  0.1702791  0.1549364  0.3085179    0.00000       Uiso       1.00
       O46          O  0.1333017  0.1453331  0.3674494    0.00000       Uiso       1.00
      H472          H  0.1365972  0.1320806  0.3357570    0.00000       Uiso       1.00
      H473          H  0.1512887  0.1244781  0.2974624    0.00000       Uiso       1.00
      H474          H  0.1948645  0.1497491  0.2738254    0.00000       Uiso       1.00
      C857          C  0.2459571  0.2273499  0.2267944    0.00000       Uiso       1.00
      C858          C  0.2318876  0.2196088  0.2447943    0.00000       Uiso       1.00
      C859          C  0.2209899  0.2261558  0.2666907    0.00000       Uiso       1.00
      C860          C  0.2078693  0.2173290  0.2845357    0.00000       Uiso       1.00
      C861          C  0.2064694  0.2007154  0.2810017    0.00000       Uiso       1.00
      C862          C  0.2177795  0.1941547  0.2588531    0.00000       Uiso       1.00
      C863          C  0.2290600  0.2045487  0.2405528    0.00000       Uiso       1.00
       O47          O  0.2510131  0.2415414  0.2281970    0.00000       Uiso       1.00
      H475          H  0.2226413  0.2382149  0.2698401    0.00000       Uiso       1.00
      H476          H  0.1990550  0.2234994  0.3010428    0.00000       Uiso       1.00
      H477          H  0.2189618  0.1799522  0.2558452    0.00000       Uiso       1.00
      C864          C  0.2229526  0.1288974  0.1742166    0.00000       Uiso       1.00
      C865          C  0.2268883  0.1429671  0.1780238    0.00000       Uiso       1.00
      C866          C  0.2378761  0.1538778  0.1604811    0.00000       Uiso       1.00
      C867          C  0.2426064  0.1669985  0.1645798    0.00000       Uiso       1.00
      C868          C  0.2376898  0.1683861  0.1861199    0.00000       Uiso       1.00
      C869          C  0.2268621  0.1570633  0.2035159    0.00000       Uiso       1.00
      C870          C  0.2198360  0.1457814  0.2001462    0.00000       Uiso       1.00
       O48          O  0.2293954  0.1238534  0.1535729    0.00000       Uiso       1.00
      H478          H  0.2426639  0.1522373  0.1436265    0.00000       Uiso       1.00
      H479          H  0.2502900  0.1758229  0.1507197    0.00000       Uiso       1.00
      H480          H  0.2250501  0.1558729  0.2195377    0.00000       Uiso       1.00
       B22          B  0.2215799  0.1081324  0.1601708    0.00000       Uiso       1.00
       B23          B  0.2667277  0.2427620  0.2046646    0.00000       Uiso       1.00
       B24          B  0.1320985  0.1531404  0.3843813    0.00000       Uiso       1.00
