data_3
_audit_creation_date              0000-00-00
_audit_creation_method            'LanYouShi'
_symmetry_space_group_name_H-M    'P1'
_cell_length_a                    42.9599991
_cell_length_b                    49.4936981
_cell_length_c                    32.9732018
_cell_angle_alpha                 90.3927994
_cell_angle_beta                  90.0314026
_cell_angle_gamma                 90.3824005
loop_
_atom_site_label
_atom_site_type_symbol
_atom_site_fract_x
_atom_site_fract_y
_atom_site_fract_z
_atom_site_U_iso_or_equiv
_atom_site_adp_type
_atom_site_occupancy
        C1          C  0.1146729  0.1041504  0.3344502    0.00000       Uiso       1.00
        C2          C  0.2299100  0.5243003  0.0817163    0.00000       Uiso       1.00
        C3          C  0.3022040  0.8512378  0.3315683    0.00000       Uiso       1.00
        C4          C  0.2807597  0.8719800  0.3393388    0.00000       Uiso       1.00
        C5          C  0.2908335  0.8990178  0.3449907    0.00000       Uiso       1.00
        C6          C  0.3230565  0.9046887  0.3413997    0.00000       Uiso       1.00
        C7          C  0.3445080  0.8839080  0.3338133    0.00000       Uiso       1.00
        C8          C  0.3770847  0.6472224  0.2544043    0.00000       Uiso       1.00
        C9          C  0.3630378  0.6236818  0.2384560    0.00000       Uiso       1.00
       C10          C  0.3325633  0.6241848  0.2222104    0.00000       Uiso       1.00
       C11          C  0.3162155  0.6489033  0.2238665    0.00000       Uiso       1.00
       C12          C  0.3301969  0.6723834  0.2401254    0.00000       Uiso       1.00
       C13          C  0.6032482  0.8572811  0.2401882    0.00000       Uiso       1.00
       C14          C  0.6172820  0.8805944  0.2239932    0.00000       Uiso       1.00
       C15          C  0.6009063  0.9052781  0.2220497    0.00000       Uiso       1.00
       C16          C  0.5703115  0.9059187  0.2378507    0.00000       Uiso       1.00
       C17          C  0.5562063  0.8825455  0.2537380    0.00000       Uiso       1.00
       C18          C  0.5901470  0.6478352  0.3378893    0.00000       Uiso       1.00
       C19          C  0.6113999  0.6273637  0.3476411    0.00000       Uiso       1.00
       C20          C  0.6432792  0.6334012  0.3541078    0.00000       Uiso       1.00
       C21          C  0.6533393  0.6604098  0.3486575    0.00000       Uiso       1.00
       C22          C  0.6321241  0.6808179  0.3385818    0.00000       Uiso       1.00
       C23          C  0.2689652  0.9190968  0.3549704    0.00000       Uiso       1.00
       C24          C  0.6646943  0.6137724  0.3669814    0.00000       Uiso       1.00
       C25          C  0.8154122  0.4277160  0.3296664    0.00000       Uiso       1.00
       C26          C  0.9520513  0.2549470  0.2504047    0.00000       Uiso       1.00
       C27          C  0.9797230  0.2756486  0.2502634    0.00000       Uiso       1.00
       C28          C  0.9660966  0.2656322  0.3167105    0.00000       Uiso       1.00
       C29          C  0.9815130  0.2435995  0.3429818    0.00000       Uiso       1.00
       C30          C  0.8986115  0.2387478  0.2187562    0.00000       Uiso       1.00
       C31          C  0.8990527  0.2142729  0.2409134    0.00000       Uiso       1.00
       C32          C  0.8762223  0.1940670  0.2350529    0.00000       Uiso       1.00
       C33          C  0.8519059  0.1973656  0.2066221    0.00000       Uiso       1.00
       C34          C  0.8510660  0.2218077  0.1847145    0.00000       Uiso       1.00
       C35          C  0.8737935  0.2419748  0.1907906    0.00000       Uiso       1.00
       C36          C  0.9225488  0.2612125  0.2233027    0.00000       Uiso       1.00
       C37          C  0.7516002  0.0705801  0.1421718    0.00000       Uiso       1.00
        N1          N  0.7689249  0.0907430  0.1590301    0.00000       Uiso       1.00
       C38          C  0.9065179  0.2867105  0.2375553    0.00000       Uiso       1.00
       C39          C  0.8877102  0.2864719  0.2728650    0.00000       Uiso       1.00
       C40          C  0.8726246  0.3098496  0.2868304    0.00000       Uiso       1.00
       C41          C  0.8754536  0.3345702  0.2658569    0.00000       Uiso       1.00
       C42          C  0.8940536  0.3349982  0.2304931    0.00000       Uiso       1.00
       C43          C  0.9092247  0.3115625  0.2166637    0.00000       Uiso       1.00
       C44          C  0.9508905  0.2878230  0.3433149    0.00000       Uiso       1.00
        N2          N  0.7867873  0.4262807  0.3466140    0.00000       Uiso       1.00
       C45          C  0.7697928  0.4447124  0.3673615    0.00000       Uiso       1.00
       C46          C  0.0330531  0.2914156  0.2182390    0.00000       Uiso       1.00
       C47          C  0.0579275  0.2876682  0.1904770    0.00000       Uiso       1.00
       C48          C  0.0807339  0.3076739  0.1842023    0.00000       Uiso       1.00
       C49          C  0.0799188  0.3324866  0.2056799    0.00000       Uiso       1.00
       C50          C  0.0554795  0.3363433  0.2338129    0.00000       Uiso       1.00
       C51          C  0.0325720  0.3162880  0.2398937    0.00000       Uiso       1.00
       C52          C  0.0091604  0.2689979  0.2231696    0.00000       Uiso       1.00
       C53          C  0.1819550  0.4579025  0.1419128    0.00000       Uiso       1.00
        N3          N  0.1642221  0.4380749  0.1585094    0.00000       Uiso       1.00
       C54          C  0.0251990  0.2437374  0.2378967    0.00000       Uiso       1.00
       C55          C  0.0219228  0.2183929  0.2179770    0.00000       Uiso       1.00
       C56          C  0.0368717  0.1951451  0.2324624    0.00000       Uiso       1.00
       C57          C  0.0558761  0.1963070  0.2674626    0.00000       Uiso       1.00
       C58          C  0.0594183  0.2215295  0.2873743    0.00000       Uiso       1.00
       C59          C  0.0444620  0.2446835  0.2728156    0.00000       Uiso       1.00
        N4          N  0.1447558  0.1044644  0.3466253    0.00000       Uiso       1.00
       C60          C  0.1617198  0.0862437  0.3675384    0.00000       Uiso       1.00
        O1          O  0.9428153  0.2530669  0.2919115    0.00000       Uiso       1.00
        O2          O  0.9978232  0.2656561  0.1825952    0.00000       Uiso       1.00
        O3          O  0.9891395  0.2780858  0.2917011    0.00000       Uiso       1.00
        O4          O  0.9338577  0.2638914  0.1826857    0.00000       Uiso       1.00
       C61          C  0.7235962  0.0746919  0.1205915    0.00000       Uiso       1.00
       C62          C  0.7080297  0.0529211  0.1016705    0.00000       Uiso       1.00
       C63          C  0.7198659  0.0263323  0.1036571    0.00000       Uiso       1.00
       C64          C  0.7473375  0.0222396  0.1265038    0.00000       Uiso       1.00
       C65          C  0.7630770  0.0440450  0.1451824    0.00000       Uiso       1.00
       C66          C  0.2100729  0.4533193  0.1207509    0.00000       Uiso       1.00
       C67          C  0.2260149  0.4747419  0.1019276    0.00000       Uiso       1.00
       C68          C  0.2144321  0.5014456  0.1035586    0.00000       Uiso       1.00
       C69          C  0.1869069  0.5060329  0.1261274    0.00000       Uiso       1.00
       C70          C  0.1708053  0.4845808  0.1447276    0.00000       Uiso       1.00
       C71          C  0.1934106  0.0925973  0.3736079    0.00000       Uiso       1.00
       C72          C  0.2124595  0.0758794  0.3972318    0.00000       Uiso       1.00
       C73          C  0.2003564  0.0523598  0.4158688    0.00000       Uiso       1.00
       C74          C  0.1688187  0.0455279  0.4082378    0.00000       Uiso       1.00
       C75          C  0.1497306  0.0621850  0.3845267    0.00000       Uiso       1.00
       C76          C  0.7411149  0.4355845  0.3830679    0.00000       Uiso       1.00
       C77          C  0.7227492  0.4525483  0.4075107    0.00000       Uiso       1.00
       C78          C  0.7325634  0.4792077  0.4170418    0.00000       Uiso       1.00
       C79          C  0.7607051  0.4886395  0.3996157    0.00000       Uiso       1.00
       C80          C  0.7791211  0.4716854  0.3751816    0.00000       Uiso       1.00
       C81          C  0.7148265  0.4970013  0.4454938    0.00000       Uiso       1.00
       C82          C  0.8293470  0.1768856  0.1994833    0.00000       Uiso       1.00
       C83          C  0.8601232  0.3580125  0.2801111    0.00000       Uiso       1.00
       C84          C  0.1026480  0.3527405  0.1984679    0.00000       Uiso       1.00
       C85          C  0.0708535  0.1730607  0.2824868    0.00000       Uiso       1.00
       C86          C  0.3198059  0.6006376  0.2042853    0.00000       Uiso       1.00
       C87          C  0.1346290  0.3462423  0.1958675    0.00000       Uiso       1.00
       C88          C  0.1570196  0.3659983  0.1860711    0.00000       Uiso       1.00
       C89          C  0.1483079  0.3930409  0.1786635    0.00000       Uiso       1.00
       C90          C  0.1165088  0.3998239  0.1829392    0.00000       Uiso       1.00
       C91          C  0.0940905  0.3800128  0.1925715    0.00000       Uiso       1.00
       C92          C  0.0543207  0.1485615  0.2881999    0.00000       Uiso       1.00
       C93          C  0.0690647  0.1258165  0.3047112    0.00000       Uiso       1.00
       C94          C  0.1008230  0.1267628  0.3161055    0.00000       Uiso       1.00
       C95          C  0.1175203  0.1510792  0.3093782    0.00000       Uiso       1.00
       C96          C  0.1028079  0.1737936  0.2928645    0.00000       Uiso       1.00
       C97          C  0.8285233  0.3569044  0.2921249    0.00000       Uiso       1.00
       C98          C  0.8134981  0.3798296  0.3079076    0.00000       Uiso       1.00
       C99          C  0.8294930  0.4047925  0.3121058    0.00000       Uiso       1.00
      C100          C  0.8608014  0.4061331  0.2989449    0.00000       Uiso       1.00
      C101          C  0.8758767  0.3831419  0.2833115    0.00000       Uiso       1.00
      C102          C  0.8381723  0.1496089  0.1939009    0.00000       Uiso       1.00
      C103          C  0.8159783  0.1295346  0.1841715    0.00000       Uiso       1.00
      C104          C  0.7841453  0.1360541  0.1794923    0.00000       Uiso       1.00
      C105          C  0.7751466  0.1631042  0.1867169    0.00000       Uiso       1.00
      C106          C  0.7973180  0.1831355  0.1966015    0.00000       Uiso       1.00
      C107          C  0.1710106  0.4119189  0.1661289    0.00000       Uiso       1.00
      C108          C  0.7617224  0.1168740  0.1666707    0.00000       Uiso       1.00
      C109          C  0.4803204  0.7542702  0.2823594    0.00000       Uiso       1.00
      C110          C  0.4534865  0.7754217  0.2819152    0.00000       Uiso       1.00
      C111          C  0.4670928  0.7641938  0.2157914    0.00000       Uiso       1.00
      C112          C  0.4515522  0.7418640  0.1894109    0.00000       Uiso       1.00
      C113          C  0.5329208  0.7377533  0.3146283    0.00000       Uiso       1.00
      C114          C  0.5318276  0.7132096  0.2921772    0.00000       Uiso       1.00
      C115          C  0.5540332  0.6928064  0.2979048    0.00000       Uiso       1.00
      C116          C  0.5782805  0.6958839  0.3266388    0.00000       Uiso       1.00
      C117          C  0.5798113  0.7204502  0.3487386    0.00000       Uiso       1.00
      C118          C  0.5577821  0.7408736  0.3426694    0.00000       Uiso       1.00
      C119          C  0.5095828  0.7603627  0.3102151    0.00000       Uiso       1.00
      C120          C  0.6729494  0.5665929  0.3871523    0.00000       Uiso       1.00
        N5          N  0.6568502  0.5873840  0.3709398    0.00000       Uiso       1.00
      C121          C  0.5262361  0.7858069  0.2967524    0.00000       Uiso       1.00
      C122          C  0.5451273  0.7856408  0.2615256    0.00000       Uiso       1.00
      C123          C  0.5602716  0.8091299  0.2478905    0.00000       Uiso       1.00
      C124          C  0.5575438  0.8339019  0.2692159    0.00000       Uiso       1.00
      C125          C  0.5392866  0.8340839  0.3049319    0.00000       Uiso       1.00
      C126          C  0.5238931  0.8105906  0.3182879    0.00000       Uiso       1.00
      C127          C  0.4828570  0.7861300  0.1893743    0.00000       Uiso       1.00
        N6          N  0.6410697  0.9280492  0.1837994    0.00000       Uiso       1.00
      C128          C  0.6562591  0.9473361  0.1623605    0.00000       Uiso       1.00
      C129          C  0.4010255  0.7931056  0.3132282    0.00000       Uiso       1.00
      C130          C  0.3758068  0.7907654  0.3408040    0.00000       Uiso       1.00
      C131          C  0.3540044  0.8115337  0.3459764    0.00000       Uiso       1.00
      C132          C  0.3562224  0.8356779  0.3234493    0.00000       Uiso       1.00
      C133          C  0.3809449  0.8380853  0.2954012    0.00000       Uiso       1.00
      C134          C  0.4028263  0.8173010  0.2904618    0.00000       Uiso       1.00
      C135          C  0.4240362  0.7701324  0.3096293    0.00000       Uiso       1.00
      C136          C  0.2608775  0.9667895  0.3743930    0.00000       Uiso       1.00
        N7          N  0.2773826  0.9451808  0.3613271    0.00000       Uiso       1.00
      C137          C  0.4072097  0.7445545  0.2965315    0.00000       Uiso       1.00
      C138          C  0.4094547  0.7200739  0.3183682    0.00000       Uiso       1.00
      C139          C  0.3940375  0.6964071  0.3051965    0.00000       Uiso       1.00
      C140          C  0.3758169  0.6961007  0.2694149    0.00000       Uiso       1.00
      C141          C  0.3731487  0.7205961  0.2478525    0.00000       Uiso       1.00
      C142          C  0.3883421  0.7442532  0.2612521    0.00000       Uiso       1.00
        N8          N  0.2927395  0.6009902  0.1832569    0.00000       Uiso       1.00
      C143          C  0.2777480  0.5813911  0.1617551    0.00000       Uiso       1.00
        O5          O  0.4899867  0.7519681  0.2410252    0.00000       Uiso       1.00
        O6          O  0.4362604  0.7678962  0.3498741    0.00000       Uiso       1.00
        O7          O  0.4439758  0.7767943  0.2404548    0.00000       Uiso       1.00
        O8          O  0.4970343  0.7632554  0.3502350    0.00000       Uiso       1.00
      C144          C  0.6999027  0.5697740  0.4114001    0.00000       Uiso       1.00
      C145          C  0.7138736  0.5473184  0.4296952    0.00000       Uiso       1.00
      C146          C  0.7014310  0.5209705  0.4244205    0.00000       Uiso       1.00
      C147          C  0.6752480  0.5178038  0.3986868    0.00000       Uiso       1.00
      C148          C  0.6611029  0.5402841  0.3805862    0.00000       Uiso       1.00
      C149          C  0.2293102  0.9656151  0.3867046    0.00000       Uiso       1.00
      C150          C  0.2130367  0.9888561  0.4057240    0.00000       Uiso       1.00
      C151          C  0.2359273  0.0107048  0.4227331    0.00000       Uiso       1.00
      C152          C  0.2602886  0.0177362  0.3895616    0.00000       Uiso       1.00
      C153          C  0.2792182  0.9924161  0.3771232    0.00000       Uiso       1.00
      C154          C  0.2507713  0.5891991  0.1405957    0.00000       Uiso       1.00
      C155          C  0.2347378  0.5707803  0.1153245    0.00000       Uiso       1.00
      C156          C  0.2452013  0.5438893  0.1103924    0.00000       Uiso       1.00
      C157          C  0.2715525  0.5358682  0.1330271    0.00000       Uiso       1.00
      C158          C  0.2876289  0.5542773  0.1582747    0.00000       Uiso       1.00
      C159          C  0.6834656  0.9392171  0.1418661    0.00000       Uiso       1.00
      C160          C  0.6996838  0.9572299  0.1165451    0.00000       Uiso       1.00
      C161          C  0.6891802  0.9839975  0.1109158    0.00000       Uiso       1.00
      C162          C  0.6626210  0.9923667  0.1329853    0.00000       Uiso       1.00
      C163          C  0.6463518  0.9743687  0.1582816    0.00000       Uiso       1.00
      C164          C  0.7046147  0.0030727  0.0820243    0.00000       Uiso       1.00
      C165          C  0.2199821  0.0354911  0.4433608    0.00000       Uiso       1.00
      C166          C  0.5999897  0.6750540  0.3339128    0.00000       Uiso       1.00
      C167          C  0.5722528  0.8576622  0.2547767    0.00000       Uiso       1.00
      C168          C  0.3345267  0.8567361  0.3292968    0.00000       Uiso       1.00
      C169          C  0.3611093  0.6721554  0.2550773    0.00000       Uiso       1.00
      C170          C  0.6137708  0.9286435  0.2042434    0.00000       Uiso       1.00
        H1          H  0.1013992  0.0872726  0.3393973    0.00000       Uiso       1.00
        H2          H  0.2939033  0.8319577  0.3276835    0.00000       Uiso       1.00
        H3          H  0.2576179  0.8670216  0.3411341    0.00000       Uiso       1.00
        H4          H  0.3314033  0.9239901  0.3447213    0.00000       Uiso       1.00
        H5          H  0.3676512  0.8888388  0.3322368    0.00000       Uiso       1.00
        H6          H  0.3994235  0.6459800  0.2649923    0.00000       Uiso       1.00
        H7          H  0.3755819  0.6061591  0.2383685    0.00000       Uiso       1.00
        H8          H  0.2939381  0.6501722  0.2130808    0.00000       Uiso       1.00
        H9          H  0.3174534  0.6897766  0.2408285    0.00000       Uiso       1.00
       H10          H  0.6160130  0.8399090  0.2411495    0.00000       Uiso       1.00
       H11          H  0.6396239  0.8792309  0.2134732    0.00000       Uiso       1.00
       H12          H  0.5577307  0.9234155  0.2374972    0.00000       Uiso       1.00
       H13          H  0.5337955  0.8838667  0.2640458    0.00000       Uiso       1.00
       H14          H  0.5671888  0.6426426  0.3344495    0.00000       Uiso       1.00
       H15          H  0.6031218  0.6080432  0.3505873    0.00000       Uiso       1.00
       H16          H  0.6762887  0.6656041  0.3523355    0.00000       Uiso       1.00
       H17          H  0.6404496  0.7000754  0.3349097    0.00000       Uiso       1.00
       H18          H  0.2461458  0.9135782  0.3583055    0.00000       Uiso       1.00
       H19          H  0.6868079  0.6198344  0.3743299    0.00000       Uiso       1.00
       H20          H  0.8275072  0.4455779  0.3305934    0.00000       Uiso       1.00
       H21          H  0.9610543  0.2351745  0.2416454    0.00000       Uiso       1.00
       H22          H  0.9706585  0.2952980  0.2413728    0.00000       Uiso       1.00
       H23          H  0.9908273  0.2276061  0.3236504    0.00000       Uiso       1.00
       H24          H  0.9644701  0.2345942  0.3634902    0.00000       Uiso       1.00
       H25          H  1.0005478  0.2522302  0.3609173    0.00000       Uiso       1.00
       H26          H  0.9159634  0.2106209  0.2618383    0.00000       Uiso       1.00
       H27          H  0.8775080  0.1768423  0.2519649    0.00000       Uiso       1.00
       H28          H  0.8340160  0.2251214  0.1636591    0.00000       Uiso       1.00
       H29          H  0.8721461  0.2592881  0.1741431    0.00000       Uiso       1.00
       H30          H  0.8847377  0.2690538  0.2889545    0.00000       Uiso       1.00
       H31          H  0.8596316  0.3086001  0.3127701    0.00000       Uiso       1.00
       H32          H  0.8966020  0.3524086  0.2142187    0.00000       Uiso       1.00
       H33          H  0.9223835  0.3130261  0.1909667    0.00000       Uiso       1.00
       H34          H  0.9320895  0.2792748  0.3615484    0.00000       Uiso       1.00
       H35          H  0.9412998  0.3036349  0.3241892    0.00000       Uiso       1.00
       H36          H  0.9681237  0.2970402  0.3635522    0.00000       Uiso       1.00
       H37          H  0.0595844  0.2700623  0.1741730    0.00000       Uiso       1.00
       H38          H  0.0978413  0.3039514  0.1633359    0.00000       Uiso       1.00
       H39          H  0.0541748  0.3538692  0.2503687    0.00000       Uiso       1.00
       H40          H  0.0156028  0.3203367  0.2606343    0.00000       Uiso       1.00
       H41          H  0.0084358  0.2164245  0.1925903    0.00000       Uiso       1.00
       H42          H  0.0338391  0.1773167  0.2169965    0.00000       Uiso       1.00
       H43          H  0.0727895  0.2233001  0.3129763    0.00000       Uiso       1.00
       H44          H  0.0478267  0.2624693  0.2882140    0.00000       Uiso       1.00
       H45          H  0.9825009  0.2509924  0.1837172    0.00000       Uiso       1.00
       H46          H  0.9491423  0.2786057  0.1835893    0.00000       Uiso       1.00
       H47          H  0.7144409  0.0935737  0.1177743    0.00000       Uiso       1.00
       H48          H  0.6879718  0.0568398  0.0861571    0.00000       Uiso       1.00
       H49          H  0.7563540  0.0032547  0.1292733    0.00000       Uiso       1.00
       H50          H  0.7831774  0.0403965  0.1608534    0.00000       Uiso       1.00
       H51          H  0.2190348  0.4343282  0.1181560    0.00000       Uiso       1.00
       H52          H  0.2461386  0.4704833  0.0867115    0.00000       Uiso       1.00
       H53          H  0.1780929  0.5251252  0.1287039    0.00000       Uiso       1.00
       H54          H  0.1506679  0.4885820  0.1601659    0.00000       Uiso       1.00
       H55          H  0.2028337  0.1096840  0.3611369    0.00000       Uiso       1.00
       H56          H  0.2353056  0.0812578  0.4009721    0.00000       Uiso       1.00
       H57          H  0.1593010  0.0284028  0.4203764    0.00000       Uiso       1.00
       H58          H  0.1269969  0.0566884  0.3803736    0.00000       Uiso       1.00
       H59          H  0.7335121  0.4162899  0.3772317    0.00000       Uiso       1.00
       H60          H  0.7022577  0.4450143  0.4185757    0.00000       Uiso       1.00
       H61          H  0.7682854  0.5079607  0.4051494    0.00000       Uiso       1.00
       H62          H  0.7994415  0.4792020  0.3636698    0.00000       Uiso       1.00
       H63          H  0.3319050  0.5829728  0.2062546    0.00000       Uiso       1.00
       H64          H  0.1419779  0.3269134  0.2008860    0.00000       Uiso       1.00
       H65          H  0.1798376  0.3602818  0.1840228    0.00000       Uiso       1.00
       H66          H  0.1091796  0.4192156  0.1785279    0.00000       Uiso       1.00
       H67          H  0.0712683  0.3856881  0.1945140    0.00000       Uiso       1.00
       H68          H  0.0311982  0.1471372  0.2809036    0.00000       Uiso       1.00
       H69          H  0.0561742  0.1085586  0.3086745    0.00000       Uiso       1.00
       H70          H  0.1406092  0.1526724  0.3166723    0.00000       Uiso       1.00
       H71          H  0.1157562  0.1909726  0.2885378    0.00000       Uiso       1.00
       H72          H  0.8160304  0.3392951  0.2895291    0.00000       Uiso       1.00
       H73          H  0.7907022  0.3779314  0.3164695    0.00000       Uiso       1.00
       H74          H  0.8731497  0.4238558  0.3010407    0.00000       Uiso       1.00
       H75          H  0.8987003  0.3849115  0.2747907    0.00000       Uiso       1.00
       H76          H  0.8610316  0.1441057  0.1961234    0.00000       Uiso       1.00
       H77          H  0.8235146  0.1101505  0.1799659    0.00000       Uiso       1.00
       H78          H  0.7522843  0.1686323  0.1844402    0.00000       Uiso       1.00
       H79          H  0.7897772  0.2024664  0.2014570    0.00000       Uiso       1.00
       H80          H  0.1933426  0.4054378  0.1618799    0.00000       Uiso       1.00
       H81          H  0.7393284  0.1231097  0.1621925    0.00000       Uiso       1.00
       H82          H  0.4704383  0.7347219  0.2908412    0.00000       Uiso       1.00
       H83          H  0.4634113  0.7951256  0.2898640    0.00000       Uiso       1.00
       H84          H  0.4415808  0.7262142  0.2087090    0.00000       Uiso       1.00
       H85          H  0.4686725  0.7324660  0.1694286    0.00000       Uiso       1.00
       H86          H  0.4329729  0.7503372  0.1709159    0.00000       Uiso       1.00
       H87          H  0.5148754  0.7096198  0.2711374    0.00000       Uiso       1.00
       H88          H  0.5522816  0.6755756  0.2806936    0.00000       Uiso       1.00
       H89          H  0.5968477  0.7236875  0.3699678    0.00000       Uiso       1.00
       H90          H  0.5600439  0.7582811  0.3593633    0.00000       Uiso       1.00
       H91          H  0.5480072  0.7682116  0.2451658    0.00000       Uiso       1.00
       H92          H  0.5731199  0.8079304  0.2218191    0.00000       Uiso       1.00
       H93          H  0.5370159  0.8514187  0.3217355    0.00000       Uiso       1.00
       H94          H  0.5107459  0.8119428  0.3440316    0.00000       Uiso       1.00
       H95          H  0.4659273  0.7951885  0.1689345    0.00000       Uiso       1.00
       H96          H  0.5016419  0.7773957  0.1713696    0.00000       Uiso       1.00
       H97          H  0.4925895  0.8020997  0.2086217    0.00000       Uiso       1.00
       H98          H  0.3730824  0.7736776  0.3577752    0.00000       Uiso       1.00
       H99          H  0.3365801  0.8088691  0.3667595    0.00000       Uiso       1.00
      H100          H  0.3832228  0.8550583  0.2780506    0.00000       Uiso       1.00
      H101          H  0.4200567  0.8203681  0.2697244    0.00000       Uiso       1.00
      H102          H  0.4225768  0.7190676  0.3441723    0.00000       Uiso       1.00
      H103          H  0.3962711  0.6793003  0.3221804    0.00000       Uiso       1.00
      H104          H  0.3603169  0.7214612  0.2217437    0.00000       Uiso       1.00
      H105          H  0.3855392  0.7614479  0.2446530    0.00000       Uiso       1.00
      H106          H  0.4187289  0.7627307  0.3672170    0.00000       Uiso       1.00
      H107          H  0.5142820  0.7692458  0.3676116    0.00000       Uiso       1.00
      H108          H  0.7094051  0.5884406  0.4166332    0.00000       Uiso       1.00
      H109          H  0.7332150  0.5505350  0.4471578    0.00000       Uiso       1.00
      H110          H  0.6659700  0.4990132  0.3933713    0.00000       Uiso       1.00
      H111          H  0.6418514  0.5373029  0.3627555    0.00000       Uiso       1.00
      H112          H  0.2167431  0.9482021  0.3829587    0.00000       Uiso       1.00
      H113          H  0.1986193  0.9813526  0.4305301    0.00000       Uiso       1.00
      H114          H  0.2765281  0.0332362  0.4003602    0.00000       Uiso       1.00
      H115          H  0.2901794  0.9965672  0.3479141    0.00000       Uiso       1.00
      H116          H  0.2427383  0.6085741  0.1430545    0.00000       Uiso       1.00
      H117          H  0.2154426  0.5773910  0.1003056    0.00000       Uiso       1.00
      H118          H  0.2795240  0.5164731  0.1308704    0.00000       Uiso       1.00
      H119          H  0.3066978  0.5476429  0.1736696    0.00000       Uiso       1.00
      H120          H  0.6915212  0.9199020  0.1448364    0.00000       Uiso       1.00
      H121          H  0.7191325  0.9504130  0.1019827    0.00000       Uiso       1.00
      H122          H  0.6546128  0.0117017  0.1303390    0.00000       Uiso       1.00
      H123          H  0.6271240  0.9812167  0.1732399    0.00000       Uiso       1.00
      H124          H  0.7166260  0.9763579  0.0419673    0.00000       Uiso       1.00
      H125          H  0.6016048  0.9463088  0.2058151    0.00000       Uiso       1.00
      C171          C  0.7619507  0.0201949  0.9082514    0.00000       Uiso       1.00
      C172          C  0.6983630  0.3539993  0.6580107    0.00000       Uiso       1.00
      C173          C  0.7191244  0.3747479  0.6469160    0.00000       Uiso       1.00
      C174          C  0.7086892  0.4015535  0.6417845    0.00000       Uiso       1.00
      C175          C  0.6769438  0.4070458  0.6495504    0.00000       Uiso       1.00
      C176          C  0.6561407  0.3862276  0.6603070    0.00000       Uiso       1.00
      C177          C  0.6192339  0.1504110  0.7464821    0.00000       Uiso       1.00
      C178          C  0.6322693  0.1266585  0.7620708    0.00000       Uiso       1.00
      C179          C  0.6627334  0.1265903  0.7783576    0.00000       Uiso       1.00
      C180          C  0.6799887  0.1510369  0.7776072    0.00000       Uiso       1.00
      C181          C  0.6669912  0.1747677  0.7617144    0.00000       Uiso       1.00
      C182          C  0.3970521  0.3594432  0.7627325    0.00000       Uiso       1.00
      C183          C  0.3828052  0.3825444  0.7792534    0.00000       Uiso       1.00
      C184          C  0.3990057  0.4074906  0.7817540    0.00000       Uiso       1.00
      C185          C  0.4296394  0.4086264  0.7661082    0.00000       Uiso       1.00
      C186          C  0.4439502  0.3854551  0.7498618    0.00000       Uiso       1.00
      C187          C  0.4085639  0.1504922  0.6623924    0.00000       Uiso       1.00
      C188          C  0.3870073  0.1299853  0.6523688    0.00000       Uiso       1.00
      C189          C  0.3551873  0.1359687  0.6461622    0.00000       Uiso       1.00
      C190          C  0.3454694  0.1629443  0.6522198    0.00000       Uiso       1.00
      C191          C  0.3670028  0.1833999  0.6625198    0.00000       Uiso       1.00
      C192          C  0.7295761  0.4215408  0.6279731    0.00000       Uiso       1.00
      C193          C  0.3335551  0.1162701  0.6328781    0.00000       Uiso       1.00
      C194          C  0.7991147  0.0001171  0.8525063    0.00000       Uiso       1.00
      C195          C  0.2824620 -0.0005809  0.5514491    0.00000       Uiso       1.00
      C196          C  0.6745152  0.1026385  0.7952378    0.00000       Uiso       1.00
      C197          C  0.5199068  0.2577357  0.7183852    0.00000       Uiso       1.00
      C198          C  0.5472073  0.2788039  0.7181422    0.00000       Uiso       1.00
      C199          C  0.5337425  0.2689577  0.7845929    0.00000       Uiso       1.00
      C200          C  0.5489985  0.2474476  0.8119670    0.00000       Uiso       1.00
      C201          C  0.4668816  0.2407255  0.6864756    0.00000       Uiso       1.00
      C202          C  0.4677240  0.2163301  0.7087996    0.00000       Uiso       1.00
      C203          C  0.4453367  0.1957639  0.7029001    0.00000       Uiso       1.00
      C204          C  0.4211085  0.1985755  0.6742034    0.00000       Uiso       1.00
      C205          C  0.4198394  0.2229667  0.6522104    0.00000       Uiso       1.00
      C206          C  0.4420430  0.2435358  0.6584417    0.00000       Uiso       1.00
      C207          C  0.4904293  0.2635069  0.6910077    0.00000       Uiso       1.00
      C208          C  0.3252802  0.0691954  0.6107604    0.00000       Uiso       1.00
        N9          N  0.3414265  0.0900462  0.6276379    0.00000       Uiso       1.00
      C209          C  0.4740072  0.2888604  0.7050335    0.00000       Uiso       1.00
      C210          C  0.4552453  0.2885791  0.7403763    0.00000       Uiso       1.00
      C211          C  0.4402031  0.3119527  0.7544643    0.00000       Uiso       1.00
      C212          C  0.4429159  0.3367144  0.7335377    0.00000       Uiso       1.00
      C213          C  0.4611726  0.3370397  0.6978301    0.00000       Uiso       1.00
      C214          C  0.4764251  0.3136490  0.6839600    0.00000       Uiso       1.00
      C215          C  0.5183613  0.2916907  0.8099733    0.00000       Uiso       1.00
       N10          N  0.3585181  0.4295740  0.8202146    0.00000       Uiso       1.00
      C216          C  0.3430704  0.4485813  0.8419576    0.00000       Uiso       1.00
      C217          C  0.5999158  0.2955342  0.6856789    0.00000       Uiso       1.00
      C218          C  0.6244872  0.2926082  0.6572630    0.00000       Uiso       1.00
      C219          C  0.6463338  0.3133272  0.6504939    0.00000       Uiso       1.00
      C220          C  0.6449775  0.3379969  0.6723059    0.00000       Uiso       1.00
      C221          C  0.6212343  0.3407770  0.7017208    0.00000       Uiso       1.00
      C222          C  0.5991911  0.3200746  0.7081437    0.00000       Uiso       1.00
      C223          C  0.5763625  0.2728254  0.6902278    0.00000       Uiso       1.00
      C224          C  0.7367583  0.4687885  0.6075087    0.00000       Uiso       1.00
       N11          N  0.7213197  0.4477523  0.6244658    0.00000       Uiso       1.00
      C225          C  0.5926837  0.2473807  0.7035944    0.00000       Uiso       1.00
      C226          C  0.5898699  0.2226367  0.6819990    0.00000       Uiso       1.00
      C227          C  0.6045574  0.1990271  0.6955256    0.00000       Uiso       1.00
      C228          C  0.6225611  0.1990221  0.7314991    0.00000       Uiso       1.00
      C229          C  0.6259890  0.2238085  0.7527037    0.00000       Uiso       1.00
      C230          C  0.6115528  0.2474334  0.7388807    0.00000       Uiso       1.00
       N12          N  0.7022737  0.1016770  0.8146334    0.00000       Uiso       1.00
      C231          C  0.7162481  0.0811130  0.8345110    0.00000       Uiso       1.00
        O9          O  0.5107203  0.2558787  0.7599272    0.00000       Uiso       1.00
       O10          O  0.5636219  0.2699366  0.6502683    0.00000       Uiso       1.00
       O11          O  0.5570750  0.2808101  0.7594280    0.00000       Uiso       1.00
       O12          O  0.5027392  0.2664076  0.6508977    0.00000       Uiso       1.00
      C232          C  0.2983639  0.0723067  0.5865996    0.00000       Uiso       1.00
      C233          C  0.2841211  0.0497991  0.5678916    0.00000       Uiso       1.00
      C234          C  0.2962688  0.0234870  0.5726551    0.00000       Uiso       1.00
      C235          C  0.3226138  0.0204359  0.5980037    0.00000       Uiso       1.00
      C236          C  0.3370156  0.0429655  0.6165474    0.00000       Uiso       1.00
      C237          C  0.7619189  0.4659579  0.5802170    0.00000       Uiso       1.00
      C238          C  0.7753565  0.4887538  0.5617790    0.00000       Uiso       1.00
      C239          C  0.7260342  0.4949715  0.6167063    0.00000       Uiso       1.00
      C240          C  0.7450380  0.0868611  0.8533677    0.00000       Uiso       1.00
      C241          C  0.7603220  0.0672110  0.8766299    0.00000       Uiso       1.00
      C242          C  0.7472878  0.0411002  0.8818020    0.00000       Uiso       1.00
      C243          C  0.7188991  0.0352054  0.8615880    0.00000       Uiso       1.00
      C244          C  0.7036087  0.0548020  0.8383765    0.00000       Uiso       1.00
      C245          C  0.3156320  0.4400634  0.8616845    0.00000       Uiso       1.00
      C246          C  0.2990824  0.4577938  0.8871632    0.00000       Uiso       1.00
      C247          C  0.3094953  0.4846679  0.8937350    0.00000       Uiso       1.00
      C248          C  0.3363347  0.4934192  0.8724975    0.00000       Uiso       1.00
      C249          C  0.3529220  0.4757065  0.8470395    0.00000       Uiso       1.00
      C250          C  0.3990853  0.1776884  0.6668480    0.00000       Uiso       1.00
      C251          C  0.4280851  0.3603052  0.7483194    0.00000       Uiso       1.00
      C252          C  0.6663181  0.3591947  0.6640443    0.00000       Uiso       1.00
      C253          C  0.6362332  0.1750129  0.7462067    0.00000       Uiso       1.00
      C254          C  0.3858931  0.4306397  0.7999620    0.00000       Uiso       1.00
      H126          H  0.7069562  0.3349044  0.6613920    0.00000       Uiso       1.00
      H127          H  0.7420039  0.3699564  0.6422597    0.00000       Uiso       1.00
      H128          H  0.6684215  0.4262106  0.6468356    0.00000       Uiso       1.00
      H129          H  0.6332403  0.3910290  0.6646430    0.00000       Uiso       1.00
      H130          H  0.5968864  0.1495357  0.7357560    0.00000       Uiso       1.00
      H131          H  0.6190084  0.1093880  0.7617298    0.00000       Uiso       1.00
      H132          H  0.7022125  0.1519047  0.7887375    0.00000       Uiso       1.00
      H133          H  0.6803606  0.1919566  0.7616013    0.00000       Uiso       1.00
      H134          H  0.3843981  0.3418697  0.7614186    0.00000       Uiso       1.00
      H135          H  0.3604334  0.3808130  0.7895908    0.00000       Uiso       1.00
      H136          H  0.4420925  0.4263364  0.7668352    0.00000       Uiso       1.00
      H137          H  0.4663754  0.3871331  0.7396846    0.00000       Uiso       1.00
      H138          H  0.4314626  0.1453404  0.6656303    0.00000       Uiso       1.00
      H139          H  0.3950356  0.1106828  0.6490087    0.00000       Uiso       1.00
      H140          H  0.3225702  0.1680943  0.6487753    0.00000       Uiso       1.00
      H141          H  0.3589529  0.2026515  0.6665660    0.00000       Uiso       1.00
      H142          H  0.7515806  0.4159527  0.6197146    0.00000       Uiso       1.00
      H143          H  0.3113582  0.1221489  0.6261903    0.00000       Uiso       1.00
      H144          H  0.8158791  0.0145528  0.8651665    0.00000       Uiso       1.00
      H145          H  0.2300581  0.0086591  0.5947734    0.00000       Uiso       1.00
      H146          H  0.6611524  0.0855070  0.7934396    0.00000       Uiso       1.00
      H147          H  0.5293213  0.2380689  0.7098148    0.00000       Uiso       1.00
      H148          H  0.5376815  0.2984378  0.7099667    0.00000       Uiso       1.00
      H149          H  0.5587946  0.2312847  0.7933701    0.00000       Uiso       1.00
      H150          H  0.5317461  0.2385869  0.8323165    0.00000       Uiso       1.00
      H151          H  0.5676748  0.2564805  0.8301064    0.00000       Uiso       1.00
      H152          H  0.4846105  0.2129955  0.7298836    0.00000       Uiso       1.00
      H153          H  0.4468996  0.1786277  0.7199695    0.00000       Uiso       1.00
      H154          H  0.4028481  0.2259693  0.6309657    0.00000       Uiso       1.00
      H155          H  0.4399108  0.2608198  0.6418485    0.00000       Uiso       1.00
      H156          H  0.4523811  0.2711558  0.7564875    0.00000       Uiso       1.00
      H157          H  0.4274140  0.3106659  0.7805650    0.00000       Uiso       1.00
      H158          H  0.4635119  0.3543906  0.6813770    0.00000       Uiso       1.00
      H159          H  0.4895078  0.3150805  0.6581759    0.00000       Uiso       1.00
      H160          H  0.5354239  0.3012470  0.8301102    0.00000       Uiso       1.00
      H161          H  0.4993429  0.2835475  0.8282325    0.00000       Uiso       1.00
      H162          H  0.5090324  0.3071580  0.7900085    0.00000       Uiso       1.00
      H163          H  0.6266161  0.2751626  0.6406975    0.00000       Uiso       1.00
      H164          H  0.6630732  0.3102367  0.6289089    0.00000       Uiso       1.00
      H165          H  0.6197212  0.3580269  0.7188824    0.00000       Uiso       1.00
      H166          H  0.5825947  0.3234622  0.7296413    0.00000       Uiso       1.00
      H167          H  0.5768306  0.2213698  0.6561198    0.00000       Uiso       1.00
      H168          H  0.6018940  0.1817263  0.6786701    0.00000       Uiso       1.00
      H169          H  0.6387796  0.2249184  0.7788630    0.00000       Uiso       1.00
      H170          H  0.6148594  0.2648573  0.7552035    0.00000       Uiso       1.00
      H171          H  0.5807834  0.2642025  0.6327389    0.00000       Uiso       1.00
      H172          H  0.4853595  0.2719493  0.6336894    0.00000       Uiso       1.00
      H173          H  0.2890851  0.0909549  0.5817578    0.00000       Uiso       1.00
      H174          H  0.2648035  0.0529735  0.5505103    0.00000       Uiso       1.00
      H175          H  0.3563264  0.0400707  0.6341685    0.00000       Uiso       1.00
      H176          H  0.7703974  0.4473194  0.5728945    0.00000       Uiso       1.00
      H177          H  0.7933488  0.4858376  0.5419765    0.00000       Uiso       1.00
      H178          H  0.7080070  0.4976305  0.6366030    0.00000       Uiso       1.00
      H179          H  0.7550054  0.1056125  0.8506315    0.00000       Uiso       1.00
      H180          H  0.7810187  0.0723401  0.8900109    0.00000       Uiso       1.00
      H181          H  0.7088732  0.0164663  0.8640014    0.00000       Uiso       1.00
      H182          H  0.6830720  0.0495667  0.8247718    0.00000       Uiso       1.00
      H183          H  0.3076277  0.4206651  0.8580140    0.00000       Uiso       1.00
      H184          H  0.2794498  0.4506987  0.9011095    0.00000       Uiso       1.00
      H185          H  0.3723343  0.4828415  0.8327091    0.00000       Uiso       1.00
      H186          H  0.3979173  0.4485154  0.7987909    0.00000       Uiso       1.00
      C255          C  0.8837983  0.6034616  0.6639277    0.00000       Uiso       1.00
      C256          C  0.1870131  0.9273194  0.6705723    0.00000       Uiso       1.00
      C257          C  0.0518835  0.7531948  0.7518945    0.00000       Uiso       1.00
      C258          C  0.0239262  0.7731847  0.7537662    0.00000       Uiso       1.00
      C259          C  0.0364861  0.7639541  0.6865016    0.00000       Uiso       1.00
      C260          C  0.0207707  0.7418882  0.6597940    0.00000       Uiso       1.00
      C261          C  0.1054866  0.7378273  0.7824760    0.00000       Uiso       1.00
      C262          C  0.1046846  0.7131986  0.7602002    0.00000       Uiso       1.00
      C263          C  0.1271740  0.6930391  0.7660533    0.00000       Uiso       1.00
      C264          C  0.1515422  0.6966155  0.7944731    0.00000       Uiso       1.00
      C265          C  0.1529070  0.7213131  0.8162251    0.00000       Uiso       1.00
      C266          C  0.1304820  0.7414078  0.8102074    0.00000       Uiso       1.00
      C267          C  0.0817002  0.7600908  0.7783479    0.00000       Uiso       1.00
      C268          C  0.2484639  0.5704211  0.8614508    0.00000       Uiso       1.00
       N13          N  0.2317672  0.5903739  0.8439980    0.00000       Uiso       1.00
      C269          C  0.0977178  0.7855610  0.7637369    0.00000       Uiso       1.00
      C270          C  0.1161031  0.7851716  0.7280452    0.00000       Uiso       1.00
      C271          C  0.1311412  0.8085502  0.7137874    0.00000       Uiso       1.00
      C272          C  0.1286643  0.8334373  0.7348363    0.00000       Uiso       1.00
      C273          C  0.1106013  0.8339741  0.7706686    0.00000       Uiso       1.00
      C274          C  0.0954660  0.8105636  0.7847491    0.00000       Uiso       1.00
      C275          C  0.0510883  0.7866329  0.6603746    0.00000       Uiso       1.00
       N14          N  0.2150239  0.9263812  0.6518928    0.00000       Uiso       1.00
      C276          C  0.2310916  0.9452882  0.6308233    0.00000       Uiso       1.00
      C277          C  0.9718111  0.7873390  0.7901132    0.00000       Uiso       1.00
      C278          C  0.9496318  0.7836308  0.8214701    0.00000       Uiso       1.00
      C279          C  0.9271286  0.8032132  0.8305259    0.00000       Uiso       1.00
      C280          C  0.9249423  0.8273660  0.8079392    0.00000       Uiso       1.00
      C281          C  0.9467555  0.8310524  0.7762351    0.00000       Uiso       1.00
      C282          C  0.9697285  0.8116328  0.7677309    0.00000       Uiso       1.00
      C283          C  0.9954793  0.7653860  0.7820205    0.00000       Uiso       1.00
      C284          C  0.8152235  0.9510004  0.8603190    0.00000       Uiso       1.00
       N15          N  0.8333876  0.9306905  0.8459195    0.00000       Uiso       1.00
      C285          C  0.9786196  0.7404537  0.7663918    0.00000       Uiso       1.00
      C286          C  0.9814770  0.7147791  0.7848330    0.00000       Uiso       1.00
      C287          C  0.9656606  0.6918952  0.7695193    0.00000       Uiso       1.00
      C288          C  0.9462294  0.6937103  0.7350362    0.00000       Uiso       1.00
      C289          C  0.9431469  0.7192580  0.7165706    0.00000       Uiso       1.00
      C290          C  0.9588616  0.7420645  0.7320527    0.00000       Uiso       1.00
       N16          N  0.8548350  0.6057510  0.6482989    0.00000       Uiso       1.00
      C291          C  0.8368662  0.5884475  0.6264285    0.00000       Uiso       1.00
       O13          O  0.0603190  0.7516086  0.7100597    0.00000       Uiso       1.00
       O14          O  0.0086297  0.7608467  0.8213145    0.00000       Uiso       1.00
       O15          O  0.0137452  0.7757057  0.7127149    0.00000       Uiso       1.00
       O16          O  0.0708940  0.7631931  0.8191933    0.00000       Uiso       1.00
      C292          C  0.2760991  0.5748019  0.8839225    0.00000       Uiso       1.00
      C293          C  0.2910079  0.5532436  0.9033420    0.00000       Uiso       1.00
      C294          C  0.2788721  0.5266127  0.9009257    0.00000       Uiso       1.00
      C295          C  0.2517356  0.5222668  0.8772960    0.00000       Uiso       1.00
      C296          C  0.2366422  0.5438589  0.8581192    0.00000       Uiso       1.00
      C297          C  0.7957151  0.9486566  0.8946194    0.00000       Uiso       1.00
      C298          C  0.7758720  0.9695515  0.9070128    0.00000       Uiso       1.00
      C299          C  0.7718368  0.9946966  0.8829862    0.00000       Uiso       1.00
      C300          C  0.8167686  0.9758348  0.8397384    0.00000       Uiso       1.00
      C301          C  0.8076625  0.5982512  0.6140694    0.00000       Uiso       1.00
      C302          C  0.7878760  0.5824338  0.5894601    0.00000       Uiso       1.00
      C303          C  0.7967184  0.5562714  0.5764603    0.00000       Uiso       1.00
      C304          C  0.8257065  0.5462480  0.5899699    0.00000       Uiso       1.00
      C305          C  0.8455613  0.5620646  0.6145766    0.00000       Uiso       1.00
      C306          C  0.2595069  0.9370525  0.6134725    0.00000       Uiso       1.00
      C307          C  0.2767620  0.9546149  0.5886048    0.00000       Uiso       1.00
      C308          C  0.2660501  0.9809883  0.5802977    0.00000       Uiso       1.00
      C309          C  0.2382486  0.9895540  0.5993719    0.00000       Uiso       1.00
      C310          C  0.2209503  0.9720060  0.6241829    0.00000       Uiso       1.00
      C311          C  0.1736100  0.6761296  0.8018738    0.00000       Uiso       1.00
      C312          C  0.1436788  0.8569828  0.7202744    0.00000       Uiso       1.00
      C313          C  0.9018928  0.8469064  0.8172836    0.00000       Uiso       1.00
      C314          C  0.9303461  0.6708490  0.7191578    0.00000       Uiso       1.00
      C315          C  0.8715762  0.8388798  0.8294007    0.00000       Uiso       1.00
      C316          C  0.8492893  0.8579088  0.8416554    0.00000       Uiso       1.00
      C317          C  0.8561199  0.8858768  0.8413619    0.00000       Uiso       1.00
      C318          C  0.8857204  0.8942165  0.8272951    0.00000       Uiso       1.00
      C319          C  0.9082426  0.8750509  0.8158064    0.00000       Uiso       1.00
      C320          C  0.9457532  0.6459787  0.7128502    0.00000       Uiso       1.00
      C321          C  0.9300976  0.6236881  0.6953934    0.00000       Uiso       1.00
      C322          C  0.8985503  0.6255128  0.6834462    0.00000       Uiso       1.00
      C323          C  0.8829128  0.6501448  0.6908925    0.00000       Uiso       1.00
      C324          C  0.8985042  0.6723502  0.7084866    0.00000       Uiso       1.00
      C325          C  0.1750304  0.8563119  0.7071438    0.00000       Uiso       1.00
      C326          C  0.1896426  0.8794369  0.6912500    0.00000       Uiso       1.00
      C327          C  0.1734562  0.9041572  0.6880717    0.00000       Uiso       1.00
      C328          C  0.1424081  0.9050442  0.7022613    0.00000       Uiso       1.00
      C329          C  0.1277420  0.8818672  0.7179438    0.00000       Uiso       1.00
      C330          C  0.1641122  0.6489964  0.8077554    0.00000       Uiso       1.00
      C331          C  0.1857910  0.6289754  0.8179860    0.00000       Uiso       1.00
      C332          C  0.2177315  0.6354240  0.8229046    0.00000       Uiso       1.00
      C333          C  0.2274100  0.6622939  0.8153258    0.00000       Uiso       1.00
      C334          C  0.2057579  0.6822628  0.8048958    0.00000       Uiso       1.00
      C335          C  0.8338859  0.9042398  0.8561682    0.00000       Uiso       1.00
      C336          C  0.2396147  0.6163693  0.8363311    0.00000       Uiso       1.00
      C337          C  0.7641075  0.5150551  0.5699928    0.00000       Uiso       1.00
      C338          C  0.7397031  0.5177743  0.5985384    0.00000       Uiso       1.00
      C339          C  0.2936219  0.5035309  0.9226499    0.00000       Uiso       1.00
      C340          C  0.7767263  0.5394744  0.5489246    0.00000       Uiso       1.00
      H187          H  0.8955386  0.5856717  0.6606503    0.00000       Uiso       1.00
      H188          H  0.1749165  0.9450471  0.6710709    0.00000       Uiso       1.00
      H189          H  0.0432650  0.7331944  0.7603142    0.00000       Uiso       1.00
      H190          H  0.0327806  0.7930170  0.7630746    0.00000       Uiso       1.00
      H191          H  0.0117222  0.7256564  0.6787630    0.00000       Uiso       1.00
      H192          H  0.0375452  0.7332318  0.6385881    0.00000       Uiso       1.00
      H193          H  0.0014893  0.7503898  0.6425946    0.00000       Uiso       1.00
      H194          H  0.0877481  0.7093824  0.7392163    0.00000       Uiso       1.00
      H195          H  0.1255735  0.6756401  0.7491938    0.00000       Uiso       1.00
      H196          H  0.1700830  0.7248600  0.8371662    0.00000       Uiso       1.00
      H197          H  0.1324544  0.7589074  0.8267606    0.00000       Uiso       1.00
      H198          H  0.1187786  0.7676335  0.7118860    0.00000       Uiso       1.00
      H199          H  0.1438035  0.8071913  0.6875757    0.00000       Uiso       1.00
      H200          H  0.1084036  0.8514727  0.7871051    0.00000       Uiso       1.00
      H201          H  0.0826976  0.8121831  0.8107587    0.00000       Uiso       1.00
      H202          H  0.0696319  0.7785665  0.6412612    0.00000       Uiso       1.00
      H203          H  0.0609075  0.8024315  0.6798641    0.00000       Uiso       1.00
      H204          H  0.0334604  0.7957320  0.6410072    0.00000       Uiso       1.00
      H205          H  0.9497751  0.7663903  0.8384356    0.00000       Uiso       1.00
      H206          H  0.9123899  0.7995388  0.8542495    0.00000       Uiso       1.00
      H207          H  0.9460621  0.8479721  0.7586239    0.00000       Uiso       1.00
      H208          H  0.9847382  0.8156084  0.7445464    0.00000       Uiso       1.00
      H209          H  0.9952170  0.7122756  0.8097896    0.00000       Uiso       1.00
      H210          H  0.9683616  0.6738465  0.7840374    0.00000       Uiso       1.00
      H211          H  0.9295225  0.7215396  0.6913624    0.00000       Uiso       1.00
      H212          H  0.9556727  0.7600954  0.7177391    0.00000       Uiso       1.00
      H213          H  0.0226468  0.7454749  0.8180398    0.00000       Uiso       1.00
      H214          H  0.0566011  0.7785043  0.8188348    0.00000       Uiso       1.00
      H215          H  0.2854545  0.5937281  0.8869915    0.00000       Uiso       1.00
      H216          H  0.3108408  0.5573350  0.9194524    0.00000       Uiso       1.00
      H217          H  0.2425135  0.5032461  0.8742374    0.00000       Uiso       1.00
      H218          H  0.2167845  0.5400450  0.8418189    0.00000       Uiso       1.00
      H219          H  0.7957532  0.9314583  0.9115433    0.00000       Uiso       1.00
      H220          H  0.7626061  0.9664490  0.9323046    0.00000       Uiso       1.00
      H221          H  0.8309558  0.9776703  0.8149755    0.00000       Uiso       1.00
      H222          H  0.8006309  0.6171787  0.6226489    0.00000       Uiso       1.00
      H223          H  0.7669729  0.5903946  0.5810342    0.00000       Uiso       1.00
      H224          H  0.8327440  0.5273027  0.5815970    0.00000       Uiso       1.00
      H225          H  0.8663923  0.5541764  0.6233443    0.00000       Uiso       1.00
      H226          H  0.2677212  0.9179798  0.6184252    0.00000       Uiso       1.00
      H227          H  0.2971011  0.9477593  0.5763335    0.00000       Uiso       1.00
      H228          H  0.2008017  0.9789186  0.6368131    0.00000       Uiso       1.00
      H229          H  0.2966741  0.9718030  0.5140571    0.00000       Uiso       1.00
      H230          H  0.8652812  0.8189042  0.8296988    0.00000       Uiso       1.00
      H231          H  0.8279408  0.8510119  0.8509464    0.00000       Uiso       1.00
      H232          H  0.8914291  0.9143084  0.8261221    0.00000       Uiso       1.00
      H233          H  0.9296604  0.8820052  0.8070226    0.00000       Uiso       1.00
      H234          H  0.9687307  0.6439413  0.7203780    0.00000       Uiso       1.00
      H235          H  0.9421790  0.6061405  0.6910492    0.00000       Uiso       1.00
      H236          H  0.8599567  0.6523343  0.6834078    0.00000       Uiso       1.00
      H237          H  0.8862583  0.6897418  0.7133701    0.00000       Uiso       1.00
      H238          H  0.1876338  0.8388849  0.7090313    0.00000       Uiso       1.00
      H239          H  0.2122716  0.8778998  0.6818876    0.00000       Uiso       1.00
      H240          H  0.1299358  0.9225745  0.7008938    0.00000       Uiso       1.00
      H241          H  0.1050662  0.8833226  0.7271825    0.00000       Uiso       1.00
      H242          H  0.1411394  0.6435812  0.8054296    0.00000       Uiso       1.00
      H243          H  0.1777948  0.6096996  0.8224134    0.00000       Uiso       1.00
      H244          H  0.2503810  0.6677331  0.8177593    0.00000       Uiso       1.00
      H245          H  0.2137548  0.7014726  0.7998013    0.00000       Uiso       1.00
      H246          H  0.8171338  0.8969828  0.8752920    0.00000       Uiso       1.00
      H247          H  0.2620702  0.6225855  0.8412468    0.00000       Uiso       1.00
      H248          H  0.3317775  1.0016876  0.6027626    0.00000       Uiso       1.00
      H249          H  0.7313449  0.5364863  0.6058981    0.00000       Uiso       1.00
      H250          H  0.3442878  0.5128420  0.8758456    0.00000       Uiso       1.00
       O17          O  0.3161140  0.5122022  0.9520920    0.00000       Uiso       1.00
      H251          H  0.3232828  0.4956162  0.9651294    0.00000       Uiso       1.00
       O18          O  0.2700234  0.4908196  0.9466245    0.00000       Uiso       1.00
      H252          H  0.2807228  0.4765055  0.9614716    0.00000       Uiso       1.00
       O19          O  0.7879860  0.0302664  0.9310133    0.00000       Uiso       1.00
      H253          H  0.7945018  0.0151890  0.9481118    0.00000       Uiso       1.00
       O20          O  0.7388980  0.0137852  0.9380628    0.00000       Uiso       1.00
      H254          H  0.7493770  0.0024629  0.9580673    0.00000       Uiso       1.00
       O21          O  0.7356255  0.5042144  0.4776752    0.00000       Uiso       1.00
      H255          H  0.7227512  0.5139026  0.4974067    0.00000       Uiso       1.00
       O22          O  0.6901673  0.4830786  0.4659424    0.00000       Uiso       1.00
      H256          H  0.6817538  0.4961950  0.4854049    0.00000       Uiso       1.00
       O23          O  0.7944118  0.5328164  0.5135632    0.00000       Uiso       1.00
      H257          H  0.7796360  0.5227077  0.4966789    0.00000       Uiso       1.00
       O24          O  0.7510272  0.5540133  0.5324907    0.00000       Uiso       1.00
      H258          H  0.7415634  0.5412032  0.5135244    0.00000       Uiso       1.00
       O25          O  0.2529750  0.5153404  0.0534563    0.00000       Uiso       1.00
      H259          H  0.2598711  0.5316765  0.0392982    0.00000       Uiso       1.00
       O26          O  0.2069236  0.5363538  0.0563038    0.00000       Uiso       1.00
      H260          H  0.2180457  0.5504405  0.0412415    0.00000       Uiso       1.00
       O27          O  0.2604835  0.0065979  0.5208738    0.00000       Uiso       1.00
      H261          H  0.2535527 -0.0105954  0.5088552    0.00000       Uiso       1.00
       O28          O  0.6816268  0.0114727  0.0534216    0.00000       Uiso       1.00
      H262          H  0.6744966 -0.0051814  0.0399538    0.00000       Uiso       1.00
       O29          O  0.2435635  0.0514670  0.4628362    0.00000       Uiso       1.00
      H263          H  0.2528927  0.0391836  0.4822887    0.00000       Uiso       1.00
       O30          O  0.2020248  0.0261424  0.4770344    0.00000       Uiso       1.00
      H264          H  0.2173314  0.0176611  0.4946448    0.00000       Uiso       1.00
       O31          O  0.3068200  0.9866493  0.5289575    0.00000       Uiso       1.00
       O32          O  0.7277196  0.9906236  0.0570004    0.00000       Uiso       1.00
