data_30
_audit_creation_date              0000-00-00
_audit_creation_method            'LanYouShi'
_symmetry_space_group_name_H-M    'P1'
_cell_length_a                    84.9225998
_cell_length_b                    73.5671005
_cell_length_c                    73.5671005
_cell_angle_alpha                 70.5409012
_cell_angle_beta                  54.7476997
_cell_angle_gamma                 54.7476997
loop_
_atom_site_label
_atom_site_type_symbol
_atom_site_fract_x
_atom_site_fract_y
_atom_site_fract_z
_atom_site_U_iso_or_equiv
_atom_site_adp_type
_atom_site_occupancy
        C1          C  0.4999871  0.4999985  0.4999942    0.00000       Uiso       1.00
        C2          C  0.3238156  0.6357524  0.5712940    0.00000       Uiso       1.00
        C3          C  0.3317777  0.6126789  0.5758958    0.00000       Uiso       1.00
        C4          C  0.3163400  0.6050803  0.5907751    0.00000       Uiso       1.00
        C5          C  0.2932153  0.6203915  0.6011633    0.00000       Uiso       1.00
        C6          C  0.2852533  0.6435073  0.5967622    0.00000       Uiso       1.00
        C7          C  0.3006856  0.6511006  0.5817615    0.00000       Uiso       1.00
        H1          H  0.3353276  0.6420288  0.5596051    0.00000       Uiso       1.00
        H2          H  0.2949227  0.6688643  0.5780078    0.00000       Uiso       1.00
        H3          H  0.3222033  0.5872850  0.5943385    0.00000       Uiso       1.00
        H4          H  0.2816081  0.6141312  0.6126356    0.00000       Uiso       1.00
        C8          C  0.5922949  0.5759000  0.3873139    0.00000       Uiso       1.00
        C9          C  0.6048588  0.5712981  0.3642403    0.00000       Uiso       1.00
       C10          C  0.5928533  0.5907792  0.3949125    0.00000       Uiso       1.00
       C11          C  0.6055898  0.6011674  0.3796012    0.00000       Uiso       1.00
       C12          C  0.6179529  0.5967664  0.3564855    0.00000       Uiso       1.00
       C13          C  0.6175213  0.5817656  0.3488922    0.00000       Uiso       1.00
        H5          H  0.6050357  0.5596092  0.3579639    0.00000       Uiso       1.00
        H6          H  0.6270379  0.5780119  0.3311285    0.00000       Uiso       1.00
        H7          H  0.5834266  0.5943426  0.4127077    0.00000       Uiso       1.00
        H8          H  0.6057248  0.6126396  0.3858616    0.00000       Uiso       1.00
       C14          C  0.5203597  0.3873180  0.4240927    0.00000       Uiso       1.00
       C15          C  0.5308694  0.3642444  0.4286945    0.00000       Uiso       1.00
       C16          C  0.5122028  0.3949166  0.4092134    0.00000       Uiso       1.00
       C17          C  0.5147775  0.3796054  0.3988252    0.00000       Uiso       1.00
       C18          C  0.5255302  0.3564896  0.4032263    0.00000       Uiso       1.00
       C19          C  0.5335550  0.3488963  0.4182270    0.00000       Uiso       1.00
        H9          H  0.5369688  0.3579681  0.4403833    0.00000       Uiso       1.00
       H10          H  0.5418022  0.3311326  0.4219807    0.00000       Uiso       1.00
       H11          H  0.5038342  0.4127118  0.4056500    0.00000       Uiso       1.00
       H12          H  0.5083821  0.3858657  0.3873530    0.00000       Uiso       1.00
       C20          C  0.5555161  0.4240969  0.6126746    0.00000       Uiso       1.00
       C21          C  0.5404045  0.4286988  0.6357481    0.00000       Uiso       1.00
       C22          C  0.5785522  0.4092177  0.6050760    0.00000       Uiso       1.00
       C23          C  0.5863658  0.3988295  0.6203873    0.00000       Uiso       1.00
       C24          C  0.5712119  0.4032306  0.6435030    0.00000       Uiso       1.00
       C25          C  0.5481864  0.4182313  0.6510963    0.00000       Uiso       1.00
       H13          H  0.5226162  0.4403876  0.6420245    0.00000       Uiso       1.00
       H14          H  0.5361856  0.4219850  0.6688600    0.00000       Uiso       1.00
       H15          H  0.5904843  0.4056543  0.5872808    0.00000       Uiso       1.00
       H16          H  0.6042334  0.3873572  0.6141269    0.00000       Uiso       1.00
       C26          C  0.3945112  0.5828695  0.5314081    0.00000       Uiso       1.00
       C27          C  0.4035468  0.5641835  0.5432662    0.00000       Uiso       1.00
       C28          C  0.3892646  0.5612668  0.5656986    0.00000       Uiso       1.00
       C29          C  0.3661278  0.5770327  0.5761445    0.00000       Uiso       1.00
       C30          C  0.3567015  0.5959653  0.5645803    0.00000       Uiso       1.00
       C31          C  0.3713437  0.5985720  0.5420603    0.00000       Uiso       1.00
       C32          C  0.5531554  0.5432705  0.4358092    0.00000       Uiso       1.00
       C33          C  0.5740491  0.5314123  0.4171232    0.00000       Uiso       1.00
       C34          C  0.5450053  0.5657027  0.4387260    0.00000       Uiso       1.00
       C35          C  0.5576962  0.5761486  0.4229600    0.00000       Uiso       1.00
       C36          C  0.5786866  0.5645844  0.4040274    0.00000       Uiso       1.00
       C37          C  0.5865644  0.5420644  0.4014207    0.00000       Uiso       1.00
       C38          C  0.5110039  0.4358133  0.4567221    0.00000       Uiso       1.00
       C39          C  0.5087960  0.4171275  0.4685804    0.00000       Uiso       1.00
       C40          C  0.5162375  0.4387300  0.4342898    0.00000       Uiso       1.00
       C41          C  0.5193126  0.4229640  0.4238439    0.00000       Uiso       1.00
       C42          C  0.5172546  0.4040315  0.4354081    0.00000       Uiso       1.00
       C43          C  0.5119832  0.4014250  0.4579282    0.00000       Uiso       1.00
       C44          C  0.5322424  0.4567264  0.5641793    0.00000       Uiso       1.00
       C45          C  0.5225918  0.4685846  0.5828654    0.00000       Uiso       1.00
       C46          C  0.5494413  0.4342942  0.5612624    0.00000       Uiso       1.00
       C47          C  0.5568122  0.4238483  0.5770284    0.00000       Uiso       1.00
       C48          C  0.5473057  0.4354124  0.5959612    0.00000       Uiso       1.00
       C49          C  0.5300568  0.4579324  0.5985678    0.00000       Uiso       1.00
       C50          C  0.4089252  0.5853648  0.5089742    0.00000       Uiso       1.00
       C51          C  0.4318577  0.5696960  0.4985047    0.00000       Uiso       1.00
       C52          C  0.3984901  0.5424935  0.5772498    0.00000       Uiso       1.00
       C53          C  0.4214363  0.5269034  0.5667902    0.00000       Uiso       1.00
       C54          C  0.5182410  0.4575032  0.4227385    0.00000       Uiso       1.00
       C55          C  0.5151377  0.4730933  0.4331981    0.00000       Uiso       1.00
       C56          C  0.5589892  0.4227429  0.5424891    0.00000       Uiso       1.00
       C57          C  0.5516331  0.4332025  0.5268990    0.00000       Uiso       1.00
       C58          C  0.5056823  0.4910184  0.5853607    0.00000       Uiso       1.00
       C59          C  0.4984186  0.5014879  0.5696920    0.00000       Uiso       1.00
       H17          H  0.4980307  0.5005462  0.5994866    0.00000       Uiso       1.00
       H18          H  0.4853522  0.5187744  0.5722058    0.00000       Uiso       1.00
       H19          H  0.5722319  0.4055309  0.5398160    0.00000       Uiso       1.00
       H20          H  0.5593834  0.4237446  0.5126757    0.00000       Uiso       1.00
       H21          H  0.4279094  0.5126801  0.5762482    0.00000       Uiso       1.00
       H22          H  0.3879204  0.5398205  0.5944620    0.00000       Uiso       1.00
       H23          H  0.4424103  0.5722098  0.4812182    0.00000       Uiso       1.00
       H24          H  0.4024509  0.5994906  0.4994464    0.00000       Uiso       1.00
       H25          H  0.5168456  0.4873164  0.4237401    0.00000       Uiso       1.00
       H26          H  0.5222107  0.4601761  0.4055263    0.00000       Uiso       1.00
        N1          N  0.5483566  0.6002778  0.4262857    0.00000       Uiso       1.00
       H27          H  0.5592508  0.6052544  0.4137899    0.00000       Uiso       1.00
       H28          H  0.5457842  0.6020288  0.4409765    0.00000       Uiso       1.00
        N2          N  0.6090170  0.5288658  0.3818144    0.00000       Uiso       1.00
       H29          H  0.6157756  0.5386854  0.3722564    0.00000       Uiso       1.00
       H30          H  0.6071532  0.5232979  0.3727204    0.00000       Uiso       1.00
        N3          N  0.5091367  0.3818188  0.4711269    0.00000       Uiso       1.00
       H31          H  0.5119360  0.3722608  0.4613073    0.00000       Uiso       1.00
       H32          H  0.4934720  0.3873709  0.4842205    0.00000       Uiso       1.00
        N4          N  0.5253266  0.4262896  0.3997146    0.00000       Uiso       1.00
       H33          H  0.5269282  0.4137938  0.3947381    0.00000       Uiso       1.00
       H34          H  0.5398632  0.4263369  0.3903107    0.00000       Uiso       1.00
        N5          N  0.5749276  0.3997191  0.5737026    0.00000       Uiso       1.00
       H35          H  0.5783025  0.3947426  0.5861985    0.00000       Uiso       1.00
       H36          H  0.5887969  0.3979682  0.5590119    0.00000       Uiso       1.00
        N6          N  0.5197043  0.4711311  0.6181742    0.00000       Uiso       1.00
       H37          H  0.5267247  0.4613115  0.6277321    0.00000       Uiso       1.00
       H38          H  0.5031787  0.4766989  0.6272682    0.00000       Uiso       1.00
        N7          N  0.3620898  0.6181783  0.5288616    0.00000       Uiso       1.00
       H39          H  0.3455116  0.6277362  0.5386813    0.00000       Uiso       1.00
       H40          H  0.3650708  0.6126263  0.5157680    0.00000       Uiso       1.00
        N8          N  0.3513381  0.5737070  0.6002737    0.00000       Uiso       1.00
       H41          H  0.3354674  0.5862029  0.6052502    0.00000       Uiso       1.00
       H42          H  0.3565181  0.5736597  0.6096777    0.00000       Uiso       1.00
       C60          C  0.4642730  0.5353903  0.4998103    0.00000       Uiso       1.00
       C61          C  0.4740685  0.5171621  0.5116907    0.00000       Uiso       1.00
       C62          C  0.4590873  0.5141148  0.5339087    0.00000       Uiso       1.00
       C63          C  0.4358876  0.5296586  0.5444885    0.00000       Uiso       1.00
       C64          C  0.4268925  0.5483546  0.5326605    0.00000       Uiso       1.00
       C65          C  0.4411165  0.5511220  0.5101820    0.00000       Uiso       1.00
       C66          C  0.5142093  0.5116948  0.4828306    0.00000       Uiso       1.00
       C67          C  0.5358852  0.4998145  0.4646025    0.00000       Uiso       1.00
       C68          C  0.5069723  0.5339130  0.4858779    0.00000       Uiso       1.00
       C69          C  0.5195922  0.5444927  0.4703342    0.00000       Uiso       1.00
       C70          C  0.5404155  0.5326648  0.4516381    0.00000       Uiso       1.00
       C71          C  0.5486698  0.5101863  0.4488707    0.00000       Uiso       1.00
       C72          C  0.5029286  0.4828347  0.4882978    0.00000       Uiso       1.00
       C73          C  0.4994808  0.4646067  0.5001782    0.00000       Uiso       1.00
       C74          C  0.5071184  0.4858820  0.4660796    0.00000       Uiso       1.00
       C75          C  0.5100423  0.4703383  0.4554999    0.00000       Uiso       1.00
       C76          C  0.5079150  0.4516423  0.4673278    0.00000       Uiso       1.00
       C77          C  0.5024278  0.4488750  0.4898064    0.00000       Uiso       1.00
       C78          C  0.5087419  0.4883021  0.5171580    0.00000       Uiso       1.00
       C79          C  0.5003093  0.5001823  0.5353861    0.00000       Uiso       1.00
       C80          C  0.5267705  0.4660839  0.5141106    0.00000       Uiso       1.00
       C81          C  0.5344265  0.4555042  0.5296543    0.00000       Uiso       1.00
       C82          C  0.5247256  0.4673321  0.5483504    0.00000       Uiso       1.00
       C83          C  0.5077340  0.4898106  0.5511178    0.00000       Uiso       1.00
       C84          C  0.5696060  0.4985089  0.4302966    0.00000       Uiso       1.00
       C85          C  0.5820690  0.5089784  0.4146279    0.00000       Uiso       1.00
       C86          C  0.5117418  0.5667944  0.4730893    0.00000       Uiso       1.00
       C87          C  0.5242285  0.5772541  0.4574993    0.00000       Uiso       1.00
       C88          C  0.5000655  0.4303010  0.5014838    0.00000       Uiso       1.00
       C89          C  0.5032713  0.4146323  0.4910143    0.00000       Uiso       1.00
       H43          H  0.5980711  0.4994506  0.4005019    0.00000       Uiso       1.00
       H44          H  0.5763398  0.4812224  0.4277829    0.00000       Uiso       1.00
       H45          H  0.4958108  0.5762525  0.4873126    0.00000       Uiso       1.00
       H46          H  0.5175861  0.5944661  0.4601724    0.00000       Uiso       1.00
       H47          H  0.4958453  0.4277874  0.5187704    0.00000       Uiso       1.00
       H48          H  0.5013949  0.4005065  0.5005422    0.00000       Uiso       1.00
        N9          N  0.4851643  0.5467848  0.5061609    0.00000       Uiso       1.00
       H49          H  0.4824592  0.5621492  0.5058509    0.00000       Uiso       1.00
       H50          H  0.4857931  0.5387111  0.5200371    0.00000       Uiso       1.00
       N10          N  0.5454668  0.4755208  0.4616345    0.00000       Uiso       1.00
       H51          H  0.5608401  0.4695129  0.4480602    0.00000       Uiso       1.00
       H52          H  0.5355226  0.4738891  0.4596484    0.00000       Uiso       1.00
       N11          N  0.5086436  0.5061649  0.4532077    0.00000       Uiso       1.00
       H53          H  0.5116587  0.5058548  0.4378434    0.00000       Uiso       1.00
       H54          H  0.5211492  0.5061653  0.4519112    0.00000       Uiso       1.00
       N12          N  0.4928669  0.4616389  0.5244719    0.00000       Uiso       1.00
       H55          H  0.4910678  0.4480646  0.5304799    0.00000       Uiso       1.00
       H56          H  0.4783146  0.4752338  0.5330721    0.00000       Uiso       1.00
       N13          N  0.5381173  0.4532121  0.4938276    0.00000       Uiso       1.00
       H57          H  0.5504667  0.4378478  0.4941375    0.00000       Uiso       1.00
       H58          H  0.5445486  0.4612859  0.4799514    0.00000       Uiso       1.00
       N14          N  0.4826292  0.5244761  0.5383541    0.00000       Uiso       1.00
       H59          H  0.4784202  0.5304840  0.5519285    0.00000       Uiso       1.00
       H60          H  0.4690672  0.5261077  0.5403402    0.00000       Uiso       1.00
       N15          N  0.4680235  0.4938318  0.5467806    0.00000       Uiso       1.00
       H61          H  0.4553641  0.4941418  0.5621449    0.00000       Uiso       1.00
       H62          H  0.4792329  0.4938313  0.5480772    0.00000       Uiso       1.00
       N16          N  0.4789851  0.5383582  0.4755166    0.00000       Uiso       1.00
       H63          H  0.4948778  0.5259482  0.4706013    0.00000       Uiso       1.00
       H64          H  0.4781125  0.5531508  0.4733464    0.00000       Uiso       1.00
       C90          C  0.8748192  0.6251106  0.8749942    0.00000       Uiso       1.00
       C91          C  0.7389543  0.7300140  0.8347024    0.00000       Uiso       1.00
       C92          C  0.7620295  0.7174522  0.8195817    0.00000       Uiso       1.00
       C93          C  0.7696145  0.7180172  0.7965527    0.00000       Uiso       1.00
       C94          C  0.7542883  0.7307584  0.7887552    0.00000       Uiso       1.00
       C95          C  0.7311709  0.7431195  0.8039181    0.00000       Uiso       1.00
       C96          C  0.7235912  0.7426812  0.8269366    0.00000       Uiso       1.00
       H65          H  0.7326884  0.7301857  0.8524857    0.00000       Uiso       1.00
       H66          H  0.7058266  0.7521961  0.8389442    0.00000       Uiso       1.00
       H67          H  0.7874107  0.7085921  0.7846139    0.00000       Uiso       1.00
       H68          H  0.7605383  0.7308984  0.7708930    0.00000       Uiso       1.00
       C97          C  0.7990095  0.6454321  0.0431716    0.00000       Uiso       1.00
       C98          C  0.8036274  0.6559314  0.0511328    0.00000       Uiso       1.00
       C99          C  0.7841272  0.6372786  0.0586054    0.00000       Uiso       1.00
      C100          C  0.7737514  0.6398464  0.0817256    0.00000       Uiso       1.00
      C101          C  0.7781684  0.6505888  0.0896868    0.00000       Uiso       1.00
      C102          C  0.7931723  0.6586103  0.0742583    0.00000       Uiso       1.00
       H69          H  0.8153191  0.6620281  0.0396235    0.00000       Uiso       1.00
       H70          H  0.7969382  0.6668494  0.0800206    0.00000       Uiso       1.00
       H71          H  0.7805514  0.6289179  0.0527426    0.00000       Uiso       1.00
       H72          H  0.7622765  0.6334540  0.0933298    0.00000       Uiso       1.00
      C103          C  0.9875426  0.6806055  0.7827021    0.00000       Uiso       1.00
      C104          C  0.0106189  0.6654961  0.7701267    0.00000       Uiso       1.00
      C105          C  0.9799470  0.7036350  0.7821577    0.00000       Uiso       1.00
      C106          C  0.9952640  0.7114439  0.7694235    0.00000       Uiso       1.00
      C107          C  0.0183828  0.6962920  0.7570489    0.00000       Uiso       1.00
      C108          C  0.0259729  0.6732732  0.7574665    0.00000       Uiso       1.00
       H73          H  0.0168927  0.6477130  0.7699391    0.00000       Uiso       1.00
       H74          H  0.0437386  0.6612741  0.7479409    0.00000       Uiso       1.00
       H75          H  0.9621497  0.7155654  0.7915935    0.00000       Uiso       1.00
       H76          H  0.9890060  0.7293063  0.7692994    0.00000       Uiso       1.00
      C109          C  0.9506950  0.4569517  0.8545215    0.00000       Uiso       1.00
      C110          C  0.9460761  0.4489999  0.8440150    0.00000       Uiso       1.00
      C111          C  0.9655880  0.4415107  0.8626611    0.00000       Uiso       1.00
      C112          C  0.9759728  0.4183927  0.8600727    0.00000       Uiso       1.00
      C113          C  0.9715546  0.4104411  0.8493232    0.00000       Uiso       1.00
      C114          C  0.9565402  0.4258768  0.8413155    0.00000       Uiso       1.00
       H77          H  0.9343766  0.4605147  0.8379287    0.00000       Uiso       1.00
       H78          H  0.9527732  0.4201218  0.8330712    0.00000       Uiso       1.00
       H79          H  0.9691647  0.4473660  0.8710270    0.00000       Uiso       1.00
       H80          H  0.9874558  0.4067828  0.8664548    0.00000       Uiso       1.00
      C115          C  0.7918869  0.6991866  0.8524696    0.00000       Uiso       1.00
      C116          C  0.8105715  0.6782982  0.8428058    0.00000       Uiso       1.00
      C117          C  0.8134719  0.6701580  0.8256096    0.00000       Uiso       1.00
      C118          C  0.7976909  0.6828535  0.8182549    0.00000       Uiso       1.00
      C119          C  0.7787592  0.7038388  0.8277748    0.00000       Uiso       1.00
      C120          C  0.7761692  0.7117066  0.8450206    0.00000       Uiso       1.00
      C121          C  0.8315995  0.6360987  0.9714156    0.00000       Uiso       1.00
      C122          C  0.8434753  0.6338826  0.9804408    0.00000       Uiso       1.00
      C123          C  0.8091623  0.6413333  0.9857037    0.00000       Uiso       1.00
      C124          C  0.7987295  0.6444006  0.0088366    0.00000       Uiso       1.00
      C125          C  0.8103115  0.6423343  0.0182526    0.00000       Uiso       1.00
      C126          C  0.8328362  0.6370620  0.0036045    0.00000       Uiso       1.00
      C127          C  0.9390284  0.6573465  0.8218353    0.00000       Uiso       1.00
      C128          C  0.9577081  0.6477014  0.8009382    0.00000       Uiso       1.00
      C129          C  0.9361242  0.6745352  0.8299909    0.00000       Uiso       1.00
      C130          C  0.9518962  0.6819013  0.8173020    0.00000       Uiso       1.00
      C131          C  0.9708226  0.6724003  0.7963081    0.00000       Uiso       1.00
      C132          C  0.9734167  0.6551617  0.7884249    0.00000       Uiso       1.00
      C133          C  0.9180768  0.5286990  0.8639198    0.00000       Uiso       1.00
      C134          C  0.9062060  0.5196718  0.8661277    0.00000       Uiso       1.00
      C135          C  0.9405180  0.5144156  0.8586724    0.00000       Uiso       1.00
      C136          C  0.9509602  0.4912858  0.8555837    0.00000       Uiso       1.00
      C137          C  0.9393834  0.4818680  0.8576415    0.00000       Uiso       1.00
      C138          C  0.9168544  0.4965113  0.8629268    0.00000       Uiso       1.00
      C139          C  0.7894078  0.7071964  0.8693761    0.00000       Uiso       1.00
      C140          C  0.8050917  0.6947287  0.8766240    0.00000       Uiso       1.00
      C141          C  0.8322442  0.6493864  0.8160484    0.00000       Uiso       1.00
      C142          C  0.8478490  0.6368951  0.8233888    0.00000       Uiso       1.00
      C143          C  0.9173570  0.6840777  0.8507711    0.00000       Uiso       1.00
      C144          C  0.9017609  0.6767262  0.8632560    0.00000       Uiso       1.00
      C145          C  0.9520820  0.5236326  0.8566690    0.00000       Uiso       1.00
      C146          C  0.9416260  0.5465720  0.8597859    0.00000       Uiso       1.00
      C147          C  0.8837635  0.5340869  0.8716661    0.00000       Uiso       1.00
      C148          C  0.8732977  0.5570124  0.8748854    0.00000       Uiso       1.00
       H81          H  0.8742260  0.5276190  0.8735428    0.00000       Uiso       1.00
       H82          H  0.8560043  0.5675663  0.8791159    0.00000       Uiso       1.00
       H83          H  0.9693012  0.5130618  0.8526889    0.00000       Uiso       1.00
       H84          H  0.9510939  0.5530385  0.8580777    0.00000       Uiso       1.00
       H85          H  0.8620710  0.6209684  0.8156285    0.00000       Uiso       1.00
       H86          H  0.8349047  0.6427516  0.8028075    0.00000       Uiso       1.00
       H87          H  0.8025904  0.7014549  0.8896887    0.00000       Uiso       1.00
       H88          H  0.7752835  0.7231943  0.8770377    0.00000       Uiso       1.00
       H89          H  0.8875427  0.6844722  0.8791896    0.00000       Uiso       1.00
       H90          H  0.9146935  0.6973126  0.8574179    0.00000       Uiso       1.00
       N17          N  0.7745945  0.6504160  0.0236332    0.00000       Uiso       1.00
       H91          H  0.7696285  0.6520119  0.0394997    0.00000       Uiso       1.00
       H92          H  0.7728359  0.6383042  0.0228074    0.00000       Uiso       1.00
       N18          N  0.8460536  0.6342071  0.0128470    0.00000       Uiso       1.00
       H93          H  0.8362413  0.6370021  0.0294235    0.00000       Uiso       1.00
       H94          H  0.8516247  0.6451607  0.0054211    0.00000       Uiso       1.00
       N19          N  0.9930159  0.6448153  0.7659689    0.00000       Uiso       1.00
       H95          H  0.0025794  0.6518312  0.7592121    0.00000       Uiso       1.00
       H96          H  0.9874508  0.6473922  0.7558644    0.00000       Uiso       1.00
       N20          N  0.9485840  0.7000058  0.8266470    0.00000       Uiso       1.00
       H97          H  0.9610829  0.7033785  0.8157536    0.00000       Uiso       1.00
       H98          H  0.9485475  0.6948689  0.8412221    0.00000       Uiso       1.00
       N21          N  0.9750990  0.4764946  0.8495553    0.00000       Uiso       1.00
       H99          H  0.9800715  0.4606295  0.8479449    0.00000       Uiso       1.00
      H100          H  0.9768627  0.4773096  0.8616677    0.00000       Uiso       1.00
       N22          N  0.9036424  0.4872663  0.8657734    0.00000       Uiso       1.00
      H101          H  0.9134610  0.4706923  0.8629636    0.00000       Uiso       1.00
      H102          H  0.8980632  0.4947019  0.8548263    0.00000       Uiso       1.00
       N23          N  0.7565646  0.7341533  0.8553872    0.00000       Uiso       1.00
      H103          H  0.7469950  0.7409163  0.8483773    0.00000       Uiso       1.00
      H104          H  0.7621238  0.7442600  0.8528194    0.00000       Uiso       1.00
       N24          N  0.8009990  0.6735247  0.8001419    0.00000       Uiso       1.00
      H105          H  0.7884940  0.6844212  0.7967790    0.00000       Uiso       1.00
      H106          H  0.8010446  0.6589450  0.8052657    0.00000       Uiso       1.00
      C149          C  0.8394113  0.6610085  0.8747039    0.00000       Uiso       1.00
      C150          C  0.8576385  0.6393380  0.8662572    0.00000       Uiso       1.00
      C151          C  0.8606692  0.6321110  0.8482322    0.00000       Uiso       1.00
      C152          C  0.8451104  0.6447356  0.8405922    0.00000       Uiso       1.00
      C153          C  0.8264155  0.6655535  0.8503064    0.00000       Uiso       1.00
      C154          C  0.8236646  0.6737978  0.8672953    0.00000       Uiso       1.00
      C155          C  0.8631366  0.6280444  0.9009077    0.00000       Uiso       1.00
      C156          C  0.8750349  0.6245885  0.9106919    0.00000       Uiso       1.00
      C157          C  0.8409139  0.6322354  0.9158940    0.00000       Uiso       1.00
      C158          C  0.8303467  0.6351523  0.9390892    0.00000       Uiso       1.00
      C159          C  0.8421923  0.6330168  0.9480743    0.00000       Uiso       1.00
      C160          C  0.8646758  0.6275285  0.9338440    0.00000       Uiso       1.00
      C161          C  0.8919894  0.6338602  0.8607746    0.00000       Uiso       1.00
      C162          C  0.9102104  0.6254330  0.8390965    0.00000       Uiso       1.00
      C163          C  0.8889539  0.6518787  0.8680178    0.00000       Uiso       1.00
      C164          C  0.9045035  0.6595299  0.8554001    0.00000       Uiso       1.00
      C165          C  0.9231934  0.6498345  0.8345733    0.00000       Uiso       1.00
      C166          C  0.9259481  0.6328531  0.8263138    0.00000       Uiso       1.00
      C167          C  0.8865118  0.5991997  0.8720371    0.00000       Uiso       1.00
      C168          C  0.8746194  0.5894123  0.8754842    0.00000       Uiso       1.00
      C169          C  0.9087393  0.5842171  0.8678328    0.00000       Uiso       1.00
      C170          C  0.9193155  0.5610245  0.8648952    0.00000       Uiso       1.00
      C171          C  0.9074748  0.5520376  0.8670225    0.00000       Uiso       1.00
      C172          C  0.8849876  0.5662630  0.8725234    0.00000       Uiso       1.00
      C173          C  0.8763709  0.6251582  0.9430924    0.00000       Uiso       1.00
      C174          C  0.8659139  0.6283570  0.9660208    0.00000       Uiso       1.00
      C175          C  0.8080403  0.6402488  0.9535463    0.00000       Uiso       1.00
      C176          C  0.7975932  0.6433452  0.9764885    0.00000       Uiso       1.00
      C177          C  0.9445159  0.6235432  0.8053744    0.00000       Uiso       1.00
      C178          C  0.9601908  0.6308022  0.7929132    0.00000       Uiso       1.00
      H107          H  0.8754551  0.6264745  0.9724870    0.00000       Uiso       1.00
      H108          H  0.8936615  0.6209370  0.9325349    0.00000       Uiso       1.00
      H109          H  0.7985689  0.6419629  0.9470813    0.00000       Uiso       1.00
      H110          H  0.7803769  0.6473158  0.9870628    0.00000       Uiso       1.00
      H111          H  0.9470199  0.6104846  0.7986365    0.00000       Uiso       1.00
      H112          H  0.9743115  0.6231550  0.7769085    0.00000       Uiso       1.00
       N25          N  0.8280231  0.6337696  0.9069682    0.00000       Uiso       1.00
      H113          H  0.8126579  0.6367844  0.9196301    0.00000       Uiso       1.00
      H114          H  0.8360910  0.6192707  0.8995165    0.00000       Uiso       1.00
       N26          N  0.8993341  0.6179734  0.8959727    0.00000       Uiso       1.00
      H115          H  0.9053552  0.6161684  0.9053304    0.00000       Uiso       1.00
      H116          H  0.9009624  0.6299029  0.8844064    0.00000       Uiso       1.00
       N27          N  0.8686774  0.6632197  0.8898302    0.00000       Uiso       1.00
      H117          H  0.8689956  0.6755621  0.8925395    0.00000       Uiso       1.00
      H118          H  0.8686832  0.6520100  0.9023257    0.00000       Uiso       1.00
       N28          N  0.9131644  0.6077640  0.8295098    0.00000       Uiso       1.00
      H119          H  0.9267352  0.6035577  0.8141354    0.00000       Uiso       1.00
      H120          H  0.8995593  0.6137200  0.8285615    0.00000       Uiso       1.00
       N29          N  0.9216253  0.5931443  0.8663067    0.00000       Uiso       1.00
      H121          H  0.9369949  0.5804851  0.8632805    0.00000       Uiso       1.00
      H122          H  0.9135605  0.6005830  0.8808122    0.00000       Uiso       1.00
       N30          N  0.8503165  0.6041257  0.8821122    0.00000       Uiso       1.00
      H123          H  0.8443006  0.5947664  0.8839088    0.00000       Uiso       1.00
      H124          H  0.8486779  0.6157026  0.8701932    0.00000       Uiso       1.00
       N31          N  0.8809505  0.6103087  0.8368715    0.00000       Uiso       1.00
      H125          H  0.8806280  0.6076106  0.8245267    0.00000       Uiso       1.00
      H126          H  0.8809555  0.5978032  0.8480700    0.00000       Uiso       1.00
       N32          N  0.8364608  0.6705793  0.8923816    0.00000       Uiso       1.00
      H127          H  0.8488801  0.6595997  0.8958523    0.00000       Uiso       1.00
      H128          H  0.8216687  0.6736211  0.9063034    0.00000       Uiso       1.00
      C179          C  0.7501549  0.8749983  0.3748824    0.00000       Uiso       1.00
      C180          C  0.6452087  0.0511369  0.3440609    0.00000       Uiso       1.00
      C181          C  0.6577877  0.0431757  0.3545602    0.00000       Uiso       1.00
      C182          C  0.6572363  0.0586095  0.3627137    0.00000       Uiso       1.00
      C183          C  0.6444919  0.0817297  0.3601459    0.00000       Uiso       1.00
      C184          C  0.6321136  0.0896909  0.3494035    0.00000       Uiso       1.00
      C185          C  0.6325381  0.0742624  0.3413821    0.00000       Uiso       1.00
      H129          H  0.6450262  0.0396276  0.3379642    0.00000       Uiso       1.00
      H130          H  0.6230099  0.0800247  0.3331429    0.00000       Uiso       1.00
      H131          H  0.6666747  0.0527467  0.3710743    0.00000       Uiso       1.00
      H132          H  0.6443624  0.0933339  0.3665384    0.00000       Uiso       1.00
      C186          C  0.7297235  0.7827062  0.3193874    0.00000       Uiso       1.00
      C187          C  0.7192227  0.7701308  0.3344969    0.00000       Uiso       1.00
      C188          C  0.7378635  0.7821617  0.2963579    0.00000       Uiso       1.00
      C189          C  0.7352806  0.7694275  0.2885490    0.00000       Uiso       1.00
      C190          C  0.7245367  0.7570530  0.3037008    0.00000       Uiso       1.00
      C191          C  0.7165289  0.7574706  0.3267197    0.00000       Uiso       1.00
      H133          H  0.7131364  0.7699432  0.3522799    0.00000       Uiso       1.00
      H134          H  0.7082888  0.7479450  0.3387188    0.00000       Uiso       1.00
      H135          H  0.7462251  0.7915975  0.2844275    0.00000       Uiso       1.00
      H136          H  0.7416629  0.7693034  0.2706866    0.00000       Uiso       1.00
      C192          C  0.6947516  0.8545257  0.5430413    0.00000       Uiso       1.00
      C193          C  0.7098770  0.8440193  0.5509930    0.00000       Uiso       1.00
      C194          C  0.6717189  0.8626654  0.5584823    0.00000       Uiso       1.00
      C195          C  0.6639225  0.8600770  0.5816002    0.00000       Uiso       1.00
      C196          C  0.6790903  0.8493274  0.5895518    0.00000       Uiso       1.00
      C197          C  0.7021124  0.8413197  0.5741162    0.00000       Uiso       1.00
      H137          H  0.7276629  0.8379329  0.5394783    0.00000       Uiso       1.00
      H138          H  0.7141237  0.8330755  0.5798711    0.00000       Uiso       1.00
      H139          H  0.6597763  0.8710313  0.5526270    0.00000       Uiso       1.00
      H140          H  0.6460574  0.8664590  0.5932102    0.00000       Uiso       1.00
      C198          C  0.9183570  0.8195857  0.2825408    0.00000       Uiso       1.00
      C199          C  0.9263114  0.8347065  0.2699789    0.00000       Uiso       1.00
      C200          C  0.9338010  0.7965568  0.2819757    0.00000       Uiso       1.00
      C201          C  0.9569247  0.7887592  0.2692346    0.00000       Uiso       1.00
      C202          C  0.9648792  0.8039221  0.2568735    0.00000       Uiso       1.00
      C203          C  0.9494404  0.8269407  0.2573118    0.00000       Uiso       1.00
      H141          H  0.9147941  0.8524897  0.2698072    0.00000       Uiso       1.00
      H142          H  0.9551974  0.8389482  0.2477969    0.00000       Uiso       1.00
      H143          H  0.9279436  0.7846180  0.2914008    0.00000       Uiso       1.00
      H144          H  0.9685370  0.7708970  0.2690945    0.00000       Uiso       1.00
      C204          C  0.6760519  0.9804449  0.3661105    0.00000       Uiso       1.00
      C205          C  0.6969530  0.9714198  0.3638944    0.00000       Uiso       1.00
      C206          C  0.7051021  0.9857078  0.3586597    0.00000       Uiso       1.00
      C207          C  0.6924028  0.0088406  0.3555916    0.00000       Uiso       1.00
      C208          C  0.6714048  0.0182567  0.3576579    0.00000       Uiso       1.00
      C209          C  0.6635281  0.0036086  0.3629303    0.00000       Uiso       1.00
      C210          C  0.7391044  0.8218395  0.3426464    0.00000       Uiso       1.00
      C211          C  0.7413217  0.8009425  0.3522916    0.00000       Uiso       1.00
      C212          C  0.7338533  0.8299949  0.3254576    0.00000       Uiso       1.00
      C213          C  0.7307702  0.8173060  0.3180915    0.00000       Uiso       1.00
      C214          C  0.7328374  0.7963122  0.3275927    0.00000       Uiso       1.00
      C215          C  0.7381264  0.7884290  0.3448314    0.00000       Uiso       1.00
      C216          C  0.7179715  0.8639240  0.4712940    0.00000       Uiso       1.00
      C217          C  0.7276341  0.8661322  0.4803213    0.00000       Uiso       1.00
      C218          C  0.7007778  0.8586764  0.4855774    0.00000       Uiso       1.00
      C219          C  0.6934244  0.8555876  0.5087071    0.00000       Uiso       1.00
      C220          C  0.7029432  0.8576457  0.5181250    0.00000       Uiso       1.00
      C221          C  0.7201866  0.8629313  0.5034817    0.00000       Uiso       1.00
      C222          C  0.8465909  0.8428099  0.3216948    0.00000       Uiso       1.00
      C223          C  0.8556117  0.8524738  0.3008065    0.00000       Uiso       1.00
      C224          C  0.8608866  0.8256137  0.3298349    0.00000       Uiso       1.00
      C225          C  0.8840225  0.8182589  0.3171394    0.00000       Uiso       1.00
      C226          C  0.8934342  0.8277789  0.2961541    0.00000       Uiso       1.00
      C227          C  0.8787784  0.8450247  0.2882864    0.00000       Uiso       1.00
      C228          C  0.6680334  0.9660249  0.3716361    0.00000       Uiso       1.00
      C229          C  0.6805047  0.9430965  0.3748349    0.00000       Uiso       1.00
      C230          C  0.7258864  0.9764925  0.3566479    0.00000       Uiso       1.00
      C231          C  0.7383814  0.9535505  0.3597443    0.00000       Uiso       1.00
      C232          C  0.6912175  0.8566726  0.4763603    0.00000       Uiso       1.00
      C233          C  0.6985566  0.8597894  0.4534210    0.00000       Uiso       1.00
      C234          C  0.8516756  0.8160524  0.3506064    0.00000       Uiso       1.00
      C235          C  0.8287303  0.8233927  0.3630978    0.00000       Uiso       1.00
      C236          C  0.8411840  0.8693804  0.2927967    0.00000       Uiso       1.00
      C237          C  0.8182524  0.8766283  0.3052644    0.00000       Uiso       1.00
      H145          H  0.8476470  0.8770421  0.2767989    0.00000       Uiso       1.00
      H146          H  0.8076891  0.8896931  0.2985383    0.00000       Uiso       1.00
      H147          H  0.8622561  0.8028114  0.3572412    0.00000       Uiso       1.00
      H148          H  0.8222687  0.8156324  0.3790244    0.00000       Uiso       1.00
      H149          H  0.7543180  0.9470854  0.3580302    0.00000       Uiso       1.00
      H150          H  0.7325283  0.9870669  0.3526772    0.00000       Uiso       1.00
      H151          H  0.6737717  0.9325390  0.3790561    0.00000       Uiso       1.00
      H152          H  0.6520257  0.9724911  0.3735187    0.00000       Uiso       1.00
      H153          H  0.6907972  0.8580810  0.4469544    0.00000       Uiso       1.00
      H154          H  0.6779785  0.8526923  0.4869311    0.00000       Uiso       1.00
       N33          N  0.7247375  0.8266509  0.2999868    0.00000       Uiso       1.00
      H155          H  0.7231321  0.8157575  0.2966142    0.00000       Uiso       1.00
      H156          H  0.7368488  0.8292350  0.2861184    0.00000       Uiso       1.00
       N34          N  0.7409831  0.7659732  0.3551780    0.00000       Uiso       1.00
      H157          H  0.7381763  0.7592164  0.3481621    0.00000       Uiso       1.00
      H158          H  0.7300352  0.7678246  0.3717011    0.00000       Uiso       1.00
       N35          N  0.7305518  0.8657782  0.5127268    0.00000       Uiso       1.00
      H159          H  0.7235431  0.8629684  0.5293008    0.00000       Uiso       1.00
      H160          H  0.7279768  0.8814431  0.5097483    0.00000       Uiso       1.00
       N36          N  0.6753142  0.8495589  0.5234983    0.00000       Uiso       1.00
      H161          H  0.6719519  0.8479487  0.5393634    0.00000       Uiso       1.00
      H162          H  0.6804445  0.8350269  0.5183184    0.00000       Uiso       1.00
       N37          N  0.8988272  0.8001459  0.3264681    0.00000       Uiso       1.00
      H163          H  0.9146952  0.7967830  0.3155717    0.00000       Uiso       1.00
      H164          H  0.8980076  0.7862751  0.3290397    0.00000       Uiso       1.00
       N38          N  0.8880164  0.8553914  0.2658398    0.00000       Uiso       1.00
      H165          H  0.9045960  0.8483815  0.2590768    0.00000       Uiso       1.00
      H166          H  0.8805831  0.8719128  0.2677061    0.00000       Uiso       1.00
       N39          N  0.6410681  0.0128512  0.3657853    0.00000       Uiso       1.00
      H167          H  0.6343039  0.0294277  0.3629903    0.00000       Uiso       1.00
      H168          H  0.6309650  0.0098586  0.3814475    0.00000       Uiso       1.00
       N40          N  0.7017412  0.0236372  0.3495763    0.00000       Uiso       1.00
      H169          H  0.6908407  0.0395038  0.3479802    0.00000       Uiso       1.00
      H170          H  0.7163187  0.0184703  0.3350397    0.00000       Uiso       1.00
      C238          C  0.7142413  0.9106960  0.3754044    0.00000       Uiso       1.00
      C239          C  0.7359237  0.9009118  0.3719486    0.00000       Uiso       1.00
      C240          C  0.7431602  0.9158981  0.3677577    0.00000       Uiso       1.00
      C241          C  0.7305321  0.9390934  0.3648407    0.00000       Uiso       1.00
      C242          C  0.7097015  0.9480783  0.3669762    0.00000       Uiso       1.00
      C243          C  0.7014482  0.9338481  0.3724645    0.00000       Uiso       1.00
      C244          C  0.7472043  0.8607787  0.3661328    0.00000       Uiso       1.00
      C245          C  0.7506611  0.8391006  0.3745600    0.00000       Uiso       1.00
      C246          C  0.7429966  0.8680218  0.3481142    0.00000       Uiso       1.00
      C247          C  0.7400647  0.8554040  0.3404630    0.00000       Uiso       1.00
      C248          C  0.7422014  0.8345774  0.3501585    0.00000       Uiso       1.00
      C249          C  0.7477062  0.8263179  0.3671399    0.00000       Uiso       1.00
      C250          C  0.7414193  0.8720412  0.4007933    0.00000       Uiso       1.00
      C251          C  0.7498643  0.8754885  0.4105807    0.00000       Uiso       1.00
      C252          C  0.7233962  0.8678367  0.4157759    0.00000       Uiso       1.00
      C253          C  0.7157577  0.8648990  0.4389685    0.00000       Uiso       1.00
      C254          C  0.7254707  0.8670267  0.4479555    0.00000       Uiso       1.00
      C255          C  0.7424570  0.8725279  0.4337301    0.00000       Uiso       1.00
      C256          C  0.7760724  0.8662613  0.3606550    0.00000       Uiso       1.00
      C257          C  0.7858528  0.8747081  0.3389846    0.00000       Uiso       1.00
      C258          C  0.7910668  0.8482363  0.3678820    0.00000       Uiso       1.00
      C259          C  0.8142654  0.8405963  0.3552574    0.00000       Uiso       1.00
      C260          C  0.8232461  0.8503105  0.3344395    0.00000       Uiso       1.00
      C261          C  0.8090082  0.8672994  0.3261953    0.00000       Uiso       1.00
      C262          C  0.7500776  0.8053787  0.3764500    0.00000       Uiso       1.00
      C263          C  0.7468638  0.7929175  0.3691910    0.00000       Uiso       1.00
      C264          C  0.7349517  0.8632599  0.3232665    0.00000       Uiso       1.00
      C265          C  0.7318405  0.8507750  0.3159149    0.00000       Uiso       1.00
      C266          C  0.7517845  0.8748902  0.4429807    0.00000       Uiso       1.00
      C267          C  0.7445381  0.8716710  0.4659061    0.00000       Uiso       1.00
      H171          H  0.7487477  0.7769128  0.3768383    0.00000       Uiso       1.00
      H172          H  0.7543112  0.7986408  0.3895087    0.00000       Uiso       1.00
      H173          H  0.7332363  0.8791935  0.3155205    0.00000       Uiso       1.00
      H174          H  0.7278574  0.8574217  0.3026800    0.00000       Uiso       1.00
      H175          H  0.7648473  0.8791209  0.4324269    0.00000       Uiso       1.00
      H176          H  0.7521987  0.8735479  0.4723741    0.00000       Uiso       1.00
       N41          N  0.7414607  0.8898343  0.3367732    0.00000       Uiso       1.00
      H177          H  0.7384334  0.8925434  0.3244307    0.00000       Uiso       1.00
      H178          H  0.7559665  0.8892148  0.3303383    0.00000       Uiso       1.00
       N42          N  0.7572936  0.8295140  0.3922291    0.00000       Uiso       1.00
      H179          H  0.7590972  0.8141396  0.3964354    0.00000       Uiso       1.00
      H180          H  0.7453701  0.8394468  0.4057905    0.00000       Uiso       1.00
       N43          N  0.7120364  0.8663105  0.4068487    0.00000       Uiso       1.00
      H181          H  0.6996930  0.8632842  0.4195079    0.00000       Uiso       1.00
      H182          H  0.7232406  0.8538148  0.3956392    0.00000       Uiso       1.00
       N44          N  0.7675390  0.8821169  0.3958673    0.00000       Uiso       1.00
      H183          H  0.7717581  0.8839136  0.4052266    0.00000       Uiso       1.00
      H184          H  0.7615773  0.8966699  0.3882307    0.00000       Uiso       1.00
       N45          N  0.7821460  0.8368757  0.3896843    0.00000       Uiso       1.00
      H185          H  0.7948135  0.8245308  0.3923824    0.00000       Uiso       1.00
      H186          H  0.7746971  0.8304415  0.3890590    0.00000       Uiso       1.00
       N46          N  0.7711257  0.8923858  0.3294138    0.00000       Uiso       1.00
      H187          H  0.7804815  0.8966059  0.3140432    0.00000       Uiso       1.00
      H188          H  0.7595534  0.9059383  0.3393588    0.00000       Uiso       1.00
       N47          N  0.7649766  0.9069723  0.3662237    0.00000       Uiso       1.00
      H189          H  0.7676800  0.9196342  0.3632089    0.00000       Uiso       1.00
      H190          H  0.7774771  0.8957740  0.3537180    0.00000       Uiso       1.00
       N48          N  0.7046613  0.8959768  0.3820195    0.00000       Uiso       1.00
      H191          H  0.7156449  0.8800883  0.3834465    0.00000       Uiso       1.00
      H192          H  0.7016067  0.8968532  0.3702762    0.00000       Uiso       1.00
      C268          C  0.3749313  0.3748863  0.1249943    0.00000       Uiso       1.00
      C269          C  0.3036784  0.2699829  0.1652860    0.00000       Uiso       1.00
      C270          C  0.2990710  0.2825447  0.1804067    0.00000       Uiso       1.00
      C271          C  0.2841919  0.2819797  0.2034357    0.00000       Uiso       1.00
      C272          C  0.2738094  0.2692386  0.2112332    0.00000       Uiso       1.00
      C273          C  0.2782160  0.2568775  0.1960703    0.00000       Uiso       1.00
      C274          C  0.2932166  0.2573157  0.1730518    0.00000       Uiso       1.00
      H193          H  0.3153673  0.2698112  0.1475028    0.00000       Uiso       1.00
      H194          H  0.2969745  0.2478008  0.1610443    0.00000       Uiso       1.00
      H195          H  0.2806243  0.2914048  0.2153746    0.00000       Uiso       1.00
      H196          H  0.2623372  0.2690985  0.2290955    0.00000       Uiso       1.00
      C275          C  0.4876205  0.3545648  0.9568169    0.00000       Uiso       1.00
      C276          C  0.5106988  0.3440655  0.9488557    0.00000       Uiso       1.00
      C277          C  0.4800183  0.3627183  0.9413831    0.00000       Uiso       1.00
      C278          C  0.4953306  0.3601505  0.9182629    0.00000       Uiso       1.00
      C279          C  0.5184512  0.3494081  0.9103017    0.00000       Uiso       1.00
      C280          C  0.5260481  0.3413866  0.9257302    0.00000       Uiso       1.00
      H197          H  0.5169778  0.3379689  0.9603649    0.00000       Uiso       1.00
      H198          H  0.5438155  0.3331475  0.9199678    0.00000       Uiso       1.00
      H199          H  0.4622193  0.3710789  0.9472458    0.00000       Uiso       1.00
      H200          H  0.4890674  0.3665430  0.9066587    0.00000       Uiso       1.00
      C281          C  0.4508577  0.3193914  0.2172863    0.00000       Uiso       1.00
      C282          C  0.4462491  0.3345008  0.2298617    0.00000       Uiso       1.00
      C283          C  0.4657473  0.2963619  0.2178308    0.00000       Uiso       1.00
      C284          C  0.4761390  0.2885530  0.2305649    0.00000       Uiso       1.00
      C285          C  0.4717312  0.3037048  0.2429396    0.00000       Uiso       1.00
      C286          C  0.4567201  0.3267237  0.2425219    0.00000       Uiso       1.00
      H201          H  0.4345523  0.3522839  0.2300493    0.00000       Uiso       1.00
      H202          H  0.4529611  0.3387228  0.2520475    0.00000       Uiso       1.00
      H203          H  0.4693161  0.2844315  0.2083950    0.00000       Uiso       1.00
      H204          H  0.4876192  0.2706906  0.2306890    0.00000       Uiso       1.00
      C287          C  0.2621757  0.5430452  0.1454670    0.00000       Uiso       1.00
      C288          C  0.2390985  0.5509970  0.1559735    0.00000       Uiso       1.00
      C289          C  0.2697673  0.5584862  0.1373273    0.00000       Uiso       1.00
      C290          C  0.2544458  0.5816041  0.1399158    0.00000       Uiso       1.00
      C291          C  0.2313264  0.5895557  0.1506653    0.00000       Uiso       1.00
      C292          C  0.2237400  0.5741200  0.1586730    0.00000       Uiso       1.00
      H205          H  0.2328273  0.5394822  0.1620598    0.00000       Uiso       1.00
      H206          H  0.2059738  0.5798751  0.1669172    0.00000       Uiso       1.00
      H207          H  0.2875652  0.5526309  0.1289614    0.00000       Uiso       1.00
      H208          H  0.2607010  0.5932141  0.1335337    0.00000       Uiso       1.00
      C293          C  0.3435505  0.3008103  0.1475189    0.00000       Uiso       1.00
      C294          C  0.3316830  0.3216987  0.1571827    0.00000       Uiso       1.00
      C295          C  0.3092471  0.3298389  0.1743788    0.00000       Uiso       1.00
      C296          C  0.2988068  0.3171434  0.1817336    0.00000       Uiso       1.00
      C297          C  0.3103804  0.2961580  0.1722136    0.00000       Uiso       1.00
      C298          C  0.3329039  0.2882903  0.1549679    0.00000       Uiso       1.00
      C299          C  0.4391214  0.3638982  0.0285728    0.00000       Uiso       1.00
      C300          C  0.4578063  0.3661143  0.0195476    0.00000       Uiso       1.00
      C301          C  0.4362069  0.3586636  0.0142847    0.00000       Uiso       1.00
      C302          C  0.4519739  0.3555963  0.9911519    0.00000       Uiso       1.00
      C303          C  0.4709056  0.3576626  0.9817359    0.00000       Uiso       1.00
      C304          C  0.4735099  0.3629349  0.9963840    0.00000       Uiso       1.00
      C305          C  0.4182178  0.3426504  0.1781531    0.00000       Uiso       1.00
      C306          C  0.4063553  0.3522954  0.1990502    0.00000       Uiso       1.00
      C307          C  0.4406578  0.3254617  0.1699975    0.00000       Uiso       1.00
      C308          C  0.4511071  0.3180956  0.1826864    0.00000       Uiso       1.00
      C309          C  0.4395386  0.3275966  0.2036804    0.00000       Uiso       1.00
      C310          C  0.4170108  0.3448353  0.2115636    0.00000       Uiso       1.00
      C311          C  0.3107031  0.4712979  0.1360687    0.00000       Uiso       1.00
      C312          C  0.2920130  0.4803251  0.1338608    0.00000       Uiso       1.00
      C313          C  0.3136136  0.4855813  0.1413160    0.00000       Uiso       1.00
      C314          C  0.2978373  0.5087110  0.1444048    0.00000       Uiso       1.00
      C315          C  0.2789003  0.5181289  0.1423470    0.00000       Uiso       1.00
      C316          C  0.2763002  0.5034856  0.1370617    0.00000       Uiso       1.00
      C317          C  0.3659880  0.2928005  0.1306124    0.00000       Uiso       1.00
      C318          C  0.3764520  0.3052681  0.1233645    0.00000       Uiso       1.00
      C319          C  0.2976865  0.3506105  0.1839401    0.00000       Uiso       1.00
      C320          C  0.3081405  0.3631018  0.1765997    0.00000       Uiso       1.00
      C321          C  0.4522135  0.3159191  0.1492173    0.00000       Uiso       1.00
      C322          C  0.4417505  0.3232707  0.1367325    0.00000       Uiso       1.00
      C323          C  0.3323911  0.4763643  0.1433195    0.00000       Uiso       1.00
      C324          C  0.3479914  0.4534250  0.1402026    0.00000       Uiso       1.00
      C325          C  0.2895240  0.4659099  0.1283224    0.00000       Uiso       1.00
      C326          C  0.3052031  0.4429845  0.1251031    0.00000       Uiso       1.00
      H209          H  0.2753952  0.4723779  0.1264457    0.00000       Uiso       1.00
      H210          H  0.3026940  0.4324306  0.1208725    0.00000       Uiso       1.00
      H211          H  0.3350594  0.4869351  0.1472995    0.00000       Uiso       1.00
      H212          H  0.3622176  0.4469584  0.1419108    0.00000       Uiso       1.00
      H213          H  0.2986754  0.3790285  0.1843600    0.00000       Uiso       1.00
      H214          H  0.2804714  0.3572453  0.1971810    0.00000       Uiso       1.00
      H215          H  0.3937415  0.2985420  0.1102998    0.00000       Uiso       1.00
      H216          H  0.3755230  0.2768026  0.1229508    0.00000       Uiso       1.00
      H217          H  0.4512120  0.3155247  0.1207988    0.00000       Uiso       1.00
      H218          H  0.4694315  0.3026843  0.1425706    0.00000       Uiso       1.00
       N49          N  0.4486508  0.3495810  0.9763553    0.00000       Uiso       1.00
      H219          H  0.4611474  0.3479849  0.9604888    0.00000       Uiso       1.00
      H220          H  0.4339547  0.3616927  0.9771811    0.00000       Uiso       1.00
       N50          N  0.4931149  0.3657898  0.9871414    0.00000       Uiso       1.00
      H221          H  0.5026741  0.3629948  0.9705650    0.00000       Uiso       1.00
      H222          H  0.5022139  0.3548362  0.9945673    0.00000       Uiso       1.00
       N51          N  0.4038074  0.3551817  0.2340196    0.00000       Uiso       1.00
      H223          H  0.4136302  0.3481657  0.2407763    0.00000       Uiso       1.00
      H224          H  0.3907150  0.3526046  0.2441240    0.00000       Uiso       1.00
       N52          N  0.4752444  0.2999911  0.1733415    0.00000       Uiso       1.00
      H225          H  0.4802225  0.2966184  0.1842349    0.00000       Uiso       1.00
      H226          H  0.4846461  0.3051279  0.1587664    0.00000       Uiso       1.00
       N53          N  0.3011564  0.5235023  0.1504332    0.00000       Uiso       1.00
      H227          H  0.2886535  0.5393674  0.1520435    0.00000       Uiso       1.00
      H228          H  0.3158475  0.5226873  0.1383208    0.00000       Uiso       1.00
       N54          N  0.2566896  0.5127307  0.1342151    0.00000       Uiso       1.00
      H229          H  0.2471243  0.5293046  0.1370248    0.00000       Uiso       1.00
      H230          H  0.2475990  0.5052950  0.1451621    0.00000       Uiso       1.00
       N55          N  0.3461126  0.2658436  0.1446013    0.00000       Uiso       1.00
      H231          H  0.3362961  0.2590806  0.1516112    0.00000       Uiso       1.00
      H232          H  0.3592108  0.2557369  0.1471691    0.00000       Uiso       1.00
       N56          N  0.2746734  0.3264721  0.1998465    0.00000       Uiso       1.00
      H233          H  0.2697017  0.3155757  0.2032094    0.00000       Uiso       1.00
      H234          H  0.2652628  0.3410518  0.1947228    0.00000       Uiso       1.00
      C327          C  0.3751313  0.3389884  0.1252846    0.00000       Uiso       1.00
      C328          C  0.3632413  0.3606589  0.1337313    0.00000       Uiso       1.00
      C329          C  0.3410199  0.3678859  0.1517563    0.00000       Uiso       1.00
      C330          C  0.3304458  0.3552614  0.1593962    0.00000       Uiso       1.00
      C331          C  0.3422830  0.3344434  0.1496821    0.00000       Uiso       1.00
      C332          C  0.3647653  0.3261991  0.1326932    0.00000       Uiso       1.00
      C333          C  0.3920964  0.3719525  0.0990808    0.00000       Uiso       1.00
      C334          C  0.4103229  0.3754084  0.0892965    0.00000       Uiso       1.00
      C335          C  0.3890509  0.3677615  0.0840945    0.00000       Uiso       1.00
      C336          C  0.4045959  0.3648446  0.0608992    0.00000       Uiso       1.00
      C337          C  0.4232910  0.3669801  0.0519142    0.00000       Uiso       1.00
      C338          C  0.4260559  0.3724684  0.0661445    0.00000       Uiso       1.00
      C339          C  0.3866317  0.3661367  0.1392139    0.00000       Uiso       1.00
      C340          C  0.3747475  0.3745639  0.1608920    0.00000       Uiso       1.00
      C341          C  0.4088579  0.3481182  0.1319707    0.00000       Uiso       1.00
      C342          C  0.4194411  0.3404671  0.1445884    0.00000       Uiso       1.00
      C343          C  0.4076088  0.3501624  0.1654151    0.00000       Uiso       1.00
      C344          C  0.3851226  0.3671438  0.1736747    0.00000       Uiso       1.00
      C345          C  0.3577560  0.4007972  0.1279514    0.00000       Uiso       1.00
      C346          C  0.3395235  0.4105845  0.1245043    0.00000       Uiso       1.00
      C347          C  0.3607967  0.4157798  0.1321557    0.00000       Uiso       1.00
      C348          C  0.3452426  0.4389724  0.1350933    0.00000       Uiso       1.00
      C349          C  0.3265424  0.4479593  0.1329660    0.00000       Uiso       1.00
      C350          C  0.3237814  0.4337339  0.1274650    0.00000       Uiso       1.00
      C351          C  0.4446290  0.3748387  0.0568961    0.00000       Uiso       1.00
      C352          C  0.4602993  0.3716399  0.0339677    0.00000       Uiso       1.00
      C353          C  0.4018430  0.3597481  0.0464421    0.00000       Uiso       1.00
      C354          C  0.4174344  0.3566517  0.0235000    0.00000       Uiso       1.00
      C355          C  0.3734410  0.3764537  0.1946141    0.00000       Uiso       1.00
      C356          C  0.3839137  0.3691947  0.2070753    0.00000       Uiso       1.00
      H235          H  0.4744243  0.3735224  0.0275014    0.00000       Uiso       1.00
      H236          H  0.4471409  0.3790599  0.0674536    0.00000       Uiso       1.00
      H237          H  0.3876206  0.3580340  0.0529072    0.00000       Uiso       1.00
      H238          H  0.4147632  0.3526811  0.0129256    0.00000       Uiso       1.00
      H239          H  0.3561486  0.3895123  0.2013519    0.00000       Uiso       1.00
      H240          H  0.3743824  0.3768419  0.2230800    0.00000       Uiso       1.00
       N57          N  0.3687686  0.3662274  0.0930202    0.00000       Uiso       1.00
      H241          H  0.3690799  0.3632125  0.0803583    0.00000       Uiso       1.00
      H242          H  0.3548859  0.3807262  0.1004719    0.00000       Uiso       1.00
       N58          N  0.4132879  0.3820234  0.1040158    0.00000       Uiso       1.00
      H243          H  0.4268614  0.3838285  0.0946581    0.00000       Uiso       1.00
      H244          H  0.4152793  0.3700940  0.1155820    0.00000       Uiso       1.00
       N59          N  0.4217349  0.3367772  0.1101582    0.00000       Uiso       1.00
      H245          H  0.4371048  0.3244348  0.1074490    0.00000       Uiso       1.00
      H246          H  0.4230264  0.3479869  0.0976628    0.00000       Uiso       1.00
       N60          N  0.3504459  0.3922329  0.1704787    0.00000       Uiso       1.00
      H247          H  0.3444360  0.3964391  0.1858531    0.00000       Uiso       1.00
      H248          H  0.3418483  0.3862769  0.1714269    0.00000       Uiso       1.00
       N61          N  0.3810837  0.4068526  0.1336818    0.00000       Uiso       1.00
      H249          H  0.3807681  0.4195118  0.1367079    0.00000       Uiso       1.00
      H250          H  0.3949632  0.3994139  0.1191763    0.00000       Uiso       1.00
       N62          N  0.3365620  0.3958712  0.1178762    0.00000       Uiso       1.00
      H251          H  0.3229835  0.4052305  0.1160796    0.00000       Uiso       1.00
      H252          H  0.3345811  0.3842943  0.1297953    0.00000       Uiso       1.00
       N63          N  0.3281383  0.3896882  0.1631170    0.00000       Uiso       1.00
      H253          H  0.3127728  0.3923863  0.1754619    0.00000       Uiso       1.00
      H254          H  0.3268361  0.4021937  0.1519185    0.00000       Uiso       1.00
       N64          N  0.3994293  0.3294176  0.1076068    0.00000       Uiso       1.00
      H255          H  0.4043397  0.3403972  0.1041361    0.00000       Uiso       1.00
      H256          H  0.4016008  0.3263758  0.0936851    0.00000       Uiso       1.00
      C357          C  0.0000431  0.1249986  0.6251060    0.00000       Uiso       1.00
      C358          C  0.0404135  0.9488600  0.6559277    0.00000       Uiso       1.00
      C359          C  0.0555308  0.9568212  0.6454282    0.00000       Uiso       1.00
      C360          C  0.0785666  0.9413875  0.6372747    0.00000       Uiso       1.00
      C361          C  0.0863745  0.9182672  0.6398426    0.00000       Uiso       1.00
      C362          C  0.0712152  0.9103060  0.6505849    0.00000       Uiso       1.00
      C363          C  0.0481897  0.9257345  0.6586064    0.00000       Uiso       1.00
      H257          H  0.0226252  0.9603693  0.6620242    0.00000       Uiso       1.00
      H258          H  0.0361848  0.9199722  0.6668456    0.00000       Uiso       1.00
      H259          H  0.0905030  0.9472502  0.6289141    0.00000       Uiso       1.00
      H260          H  0.1042420  0.9066629  0.6334500    0.00000       Uiso       1.00
      C364          C  0.8318245  0.2172907  0.6806010    0.00000       Uiso       1.00
      C365          C  0.8238577  0.2298661  0.6654916    0.00000       Uiso       1.00
      C366          C  0.8163905  0.2178352  0.7036306    0.00000       Uiso       1.00
      C367          C  0.7932645  0.2305693  0.7114394    0.00000       Uiso       1.00
      C368          C  0.7852978  0.2429440  0.6962876    0.00000       Uiso       1.00
      C369          C  0.8007265  0.2425263  0.6732687    0.00000       Uiso       1.00
      H261          H  0.8353669  0.2300536  0.6477086    0.00000       Uiso       1.00
      H262          H  0.7949599  0.2520519  0.6612697    0.00000       Uiso       1.00
      H263          H  0.8222575  0.2083994  0.7155610    0.00000       Uiso       1.00
      H264          H  0.7816603  0.2306934  0.7293018    0.00000       Uiso       1.00
      C370          C  0.0923261  0.1454712  0.4569472    0.00000       Uiso       1.00
      C371          C  0.1048968  0.1559777  0.4489954    0.00000       Uiso       1.00
      C372          C  0.0928742  0.1373315  0.4415061    0.00000       Uiso       1.00
      C373          C  0.1056072  0.1399200  0.4183883    0.00000       Uiso       1.00
      C374          C  0.1179770  0.1506695  0.4104367    0.00000       Uiso       1.00
      C375          C  0.1175558  0.1586771  0.4258723    0.00000       Uiso       1.00
      H265          H  0.1050816  0.1620640  0.4605102    0.00000       Uiso       1.00
      H266          H  0.1270777  0.1669214  0.4201174    0.00000       Uiso       1.00
      H267          H  0.0834421  0.1289656  0.4473614    0.00000       Uiso       1.00
      H268          H  0.1057341  0.1335378  0.4067783    0.00000       Uiso       1.00
      C376          C  0.0204910  0.1804111  0.7174476    0.00000       Uiso       1.00
      C377          C  0.0310042  0.1652904  0.7300095    0.00000       Uiso       1.00
      C378          C  0.0123410  0.2034401  0.7180128    0.00000       Uiso       1.00
      C379          C  0.0149260  0.2112377  0.7307539    0.00000       Uiso       1.00
      C380          C  0.0256823  0.1960748  0.7431149    0.00000       Uiso       1.00
      C381          C  0.0337002  0.1730563  0.7426767    0.00000       Uiso       1.00
      H269          H  0.0370985  0.1475072  0.7301812    0.00000       Uiso       1.00
      H270          H  0.0419499  0.1610487  0.7521916    0.00000       Uiso       1.00
      H271          H  0.0039698  0.2153790  0.7085876    0.00000       Uiso       1.00
      H272          H  0.0085359  0.2290999  0.7308940    0.00000       Uiso       1.00
      C382          C  0.0226148  0.0195520  0.6338780    0.00000       Uiso       1.00
      C383          C  0.0322746  0.0285772  0.6360941    0.00000       Uiso       1.00
      C384          C  0.0494771  0.0142891  0.6413288    0.00000       Uiso       1.00
      C385          C  0.0568422  0.9911562  0.6443968    0.00000       Uiso       1.00
      C386          C  0.0473265  0.9817402  0.6423305    0.00000       Uiso       1.00
      C387          C  0.0300742  0.9963883  0.6370582    0.00000       Uiso       1.00
      C388          C  0.9035977  0.1781574  0.6573420    0.00000       Uiso       1.00
      C389          C  0.8945631  0.1990544  0.6476969    0.00000       Uiso       1.00
      C390          C  0.8893132  0.1700020  0.6745309    0.00000       Uiso       1.00
      C391          C  0.8661751  0.1826909  0.6818970    0.00000       Uiso       1.00
      C392          C  0.8567497  0.2036847  0.6723958    0.00000       Uiso       1.00
      C393          C  0.8713942  0.2115678  0.6551570    0.00000       Uiso       1.00
      C394          C  0.0531970  0.1360729  0.5286944    0.00000       Uiso       1.00
      C395          C  0.0740951  0.1338647  0.5196672    0.00000       Uiso       1.00
      C396          C  0.0450391  0.1413206  0.5144110    0.00000       Uiso       1.00
      C397          C  0.0577266  0.1444093  0.4912814    0.00000       Uiso       1.00
      C398          C  0.0787215  0.1423512  0.4818635    0.00000       Uiso       1.00
      C399          C  0.0866071  0.1370656  0.4965068    0.00000       Uiso       1.00
      C400          C  0.0111030  0.1571870  0.6782936    0.00000       Uiso       1.00
      C401          C  0.0088995  0.1475231  0.6991819    0.00000       Uiso       1.00
      C402          C  0.0163427  0.1743832  0.6701536    0.00000       Uiso       1.00
      C403          C  0.0194282  0.1817380  0.6828491    0.00000       Uiso       1.00
      C404          C  0.0173746  0.1722180  0.7038344    0.00000       Uiso       1.00
      C405          C  0.0120970  0.1549722  0.7117020    0.00000       Uiso       1.00
      C406          C  0.0057018  0.0339720  0.6283523    0.00000       Uiso       1.00
      C407          C  0.9984435  0.0569004  0.6251536    0.00000       Uiso       1.00
      C408          C  0.0590343  0.0235044  0.6433406    0.00000       Uiso       1.00
      C409          C  0.0516836  0.0464465  0.6402442    0.00000       Uiso       1.00
      C410          C  0.0242579  0.1433243  0.5236282    0.00000       Uiso       1.00
      C411          C  0.0117745  0.1402074  0.5465675    0.00000       Uiso       1.00
      C412          C  0.0183419  0.1839446  0.6493821    0.00000       Uiso       1.00
      C413          C  0.0152283  0.1766041  0.6368906    0.00000       Uiso       1.00
      C414          C  0.0033686  0.1306165  0.7071918    0.00000       Uiso       1.00
      C415          C  0.0001526  0.1233686  0.6947241    0.00000       Uiso       1.00
      H273          H  0.0014953  0.1229549  0.7231895    0.00000       Uiso       1.00
      H274          H  0.9959278  0.1103039  0.7014501    0.00000       Uiso       1.00
      H275          H  0.0223160  0.1971855  0.6427473    0.00000       Uiso       1.00
      H276          H  0.0169330  0.1843645  0.6209640    0.00000       Uiso       1.00
      H277          H  0.0594411  0.0529115  0.6419582    0.00000       Uiso       1.00
      H278          H  0.0722799  0.0129300  0.6473113    0.00000       Uiso       1.00
      H279          H  0.9853742  0.0674580  0.6209323    0.00000       Uiso       1.00
      H280          H  0.9980430  0.0275057  0.6264698    0.00000       Uiso       1.00
      H281          H  0.9958400  0.1419158  0.5530341    0.00000       Uiso       1.00
      H282          H  0.0176095  0.1473046  0.5130574    0.00000       Uiso       1.00
       N65          N  0.8513826  0.1733460  0.7000017    0.00000       Uiso       1.00
      H283          H  0.8355112  0.1842394  0.7033743    0.00000       Uiso       1.00
      H284          H  0.8522095  0.1707619  0.7138700    0.00000       Uiso       1.00
       N66          N  0.8621416  0.2340237  0.6448105    0.00000       Uiso       1.00
      H285          H  0.8455620  0.2407805  0.6518264    0.00000       Uiso       1.00
      H286          H  0.8695683  0.2321723  0.6282874    0.00000       Uiso       1.00
       N67          N  0.1090644  0.1342187  0.4872616    0.00000       Uiso       1.00
      H287          H  0.1158199  0.1370285  0.4706877    0.00000       Uiso       1.00
      H288          H  0.1191758  0.1185538  0.4902402    0.00000       Uiso       1.00
       N68          N  0.0483789  0.1504380  0.4764901    0.00000       Uiso       1.00
      H289          H  0.0592716  0.1520482  0.4606251    0.00000       Uiso       1.00
      H290          H  0.0337973  0.1649700  0.4816701    0.00000       Uiso       1.00
       N69          N  0.0254485  0.1998511  0.6735204    0.00000       Uiso       1.00
      H291          H  0.0270573  0.2032140  0.6844168    0.00000       Uiso       1.00
      H292          H  0.0133298  0.2137218  0.6709487    0.00000       Uiso       1.00
       N70          N  0.0092550  0.1446055  0.7341486    0.00000       Uiso       1.00
      H293          H  0.0120617  0.1516154  0.7409117    0.00000       Uiso       1.00
      H294          H  0.0202095  0.1280841  0.7322823    0.00000       Uiso       1.00
       N71          N  0.0197116  0.9871457  0.6342032    0.00000       Uiso       1.00
      H295          H  0.0267291  0.9705693  0.6369982    0.00000       Uiso       1.00
      H296          H  0.0222781  0.9901383  0.6185410    0.00000       Uiso       1.00
       N72          N  0.0749619  0.9763597  0.6504121    0.00000       Uiso       1.00
      H297          H  0.0783318  0.9604931  0.6520082    0.00000       Uiso       1.00
      H298          H  0.0698358  0.9815266  0.6649488    0.00000       Uiso       1.00
      C416          C  0.0003493  0.0893008  0.6245840    0.00000       Uiso       1.00
      C417          C  0.0087916  0.0990851  0.6280399    0.00000       Uiso       1.00
      C418          C  0.0268234  0.0840988  0.6322308    0.00000       Uiso       1.00
      C419          C  0.0344737  0.0609035  0.6351478    0.00000       Uiso       1.00
      C420          C  0.0247635  0.0519185  0.6330122    0.00000       Uiso       1.00
      C421          C  0.0077683  0.0661488  0.6275240    0.00000       Uiso       1.00
      C422          C  0.9741231  0.1392182  0.6338558    0.00000       Uiso       1.00
      C423          C  0.9643291  0.1608963  0.6254284    0.00000       Uiso       1.00
      C424          C  0.9591400  0.1319751  0.6518742    0.00000       Uiso       1.00
      C425          C  0.9359391  0.1445929  0.6595255    0.00000       Uiso       1.00
      C426          C  0.9269447  0.1654194  0.6498300    0.00000       Uiso       1.00
      C427          C  0.9411714  0.1736790  0.6328486    0.00000       Uiso       1.00
      C428          C  0.0142614  0.1279557  0.5991951    0.00000       Uiso       1.00
      C429          C  0.0359410  0.1245084  0.5894078    0.00000       Uiso       1.00
      C430          C  0.0070163  0.1321602  0.5842126    0.00000       Uiso       1.00
      C431          C  0.0196327  0.1350978  0.5610200    0.00000       Uiso       1.00
      C432          C  0.0404603  0.1329702  0.5520331    0.00000       Uiso       1.00
      C433          C  0.0487224  0.1274690  0.5662584    0.00000       Uiso       1.00
      C434          C  0.0029962  0.1337356  0.6393334    0.00000       Uiso       1.00
      C435          C  0.9995528  0.1252888  0.6610039    0.00000       Uiso       1.00
      C436          C  0.0071925  0.1517607  0.6321064    0.00000       Uiso       1.00
      C437          C  0.0101267  0.1594006  0.6447310    0.00000       Uiso       1.00
      C438          C  0.0080037  0.1496864  0.6655489    0.00000       Uiso       1.00
      C439          C  0.0025103  0.1326975  0.6737932    0.00000       Uiso       1.00
      C440          C  0.9319136  0.1946182  0.6235385    0.00000       Uiso       1.00
      C441          C  0.9089796  0.2070794  0.6307975    0.00000       Uiso       1.00
      C442          C  0.9214855  0.1367370  0.6767219    0.00000       Uiso       1.00
      C443          C  0.8985378  0.1492218  0.6840736    0.00000       Uiso       1.00
      C444          C  0.0696629  0.1251067  0.5570078    0.00000       Uiso       1.00
      C445          C  0.0821226  0.1283260  0.5340824    0.00000       Uiso       1.00
      H299          H  0.9025062  0.2230841  0.6231502    0.00000       Uiso       1.00
      H300          H  0.9424682  0.2013560  0.6104798    0.00000       Uiso       1.00
      H301          H  0.9279577  0.1208034  0.6844680    0.00000       Uiso       1.00
      H302          H  0.8879664  0.1425752  0.6973085    0.00000       Uiso       1.00
      H303          H  0.0764026  0.1208759  0.5675616    0.00000       Uiso       1.00
      H304          H  0.0981283  0.1264490  0.5276143    0.00000       Uiso       1.00
       N73          N  0.9680755  0.1101627  0.6632153    0.00000       Uiso       1.00
      H305          H  0.9554148  0.1074535  0.6755578    0.00000       Uiso       1.00
      H306          H  0.9755269  0.1107821  0.6696501    0.00000       Uiso       1.00
       N74          N  0.9790441  0.1704829  0.6077594    0.00000       Uiso       1.00
      H307          H  0.9696795  0.1858573  0.6035531    0.00000       Uiso       1.00
      H308          H  0.9906148  0.1605501  0.5941980    0.00000       Uiso       1.00
       N75          N  0.9852030  0.1336864  0.5931398    0.00000       Uiso       1.00
      H309          H  0.9824924  0.1367127  0.5804806    0.00000       Uiso       1.00
      H310          H  0.9727020  0.1461821  0.6043493    0.00000       Uiso       1.00
       N76          N  0.0455307  0.1178800  0.6041211    0.00000       Uiso       1.00
      H311          H  0.0609059  0.1160833  0.5947618    0.00000       Uiso       1.00
      H312          H  0.0464854  0.1033270  0.6117578    0.00000       Uiso       1.00
       N77          N  0.0087135  0.1631212  0.6103042    0.00000       Uiso       1.00
      H313          H  0.0117341  0.1754661  0.6076061    0.00000       Uiso       1.00
      H314          H  0.9942050  0.1695555  0.6109294    0.00000       Uiso       1.00
       N78          N  0.9929327  0.1076111  0.6705747    0.00000       Uiso       1.00
      H315          H  0.9911379  0.1033910  0.6859453    0.00000       Uiso       1.00
      H316          H  0.0048580  0.0940587  0.6606296    0.00000       Uiso       1.00
       N79          N  0.0381801  0.0930245  0.6337648    0.00000       Uiso       1.00
      H317          H  0.0505306  0.0803627  0.6367796    0.00000       Uiso       1.00
      H318          H  0.0269766  0.1042228  0.6462705    0.00000       Uiso       1.00
       N80          N  0.9826649  0.1040201  0.6179690    0.00000       Uiso       1.00
      H319          H  0.9791871  0.1199086  0.6165420    0.00000       Uiso       1.00
      H320          H  0.9687435  0.1031437  0.6297122    0.00000       Uiso       1.00
      C446          C  0.2499867  0.9999989  0.9995466    0.00000       Uiso       1.00
      C447          C  0.4261293  0.9288205  0.8637290    0.00000       Uiso       1.00
      C448          C  0.4181797  0.9241980  0.8867984    0.00000       Uiso       1.00
      C449          C  0.4336273  0.9093121  0.8943837    0.00000       Uiso       1.00
      C450          C  0.4567499  0.8989375  0.8790631    0.00000       Uiso       1.00
      C451          C  0.4646995  0.9033592  0.8559514    0.00000       Uiso       1.00
      C452          C  0.4492572  0.9183668  0.8483714    0.00000       Uiso       1.00
      H321          H  0.4146093  0.9405150  0.8574631    0.00000       Uiso       1.00
      H322          H  0.4550104  0.9221363  0.8306112    0.00000       Uiso       1.00
      H323          H  0.4277736  0.9057327  0.9121757    0.00000       Uiso       1.00
      H324          H  0.4683650  0.8874596  0.8853133    0.00000       Uiso       1.00
      C453          C  0.1575946  0.1127474  0.9237459    0.00000       Uiso       1.00
      C454          C  0.1450224  0.1358169  0.9283684    0.00000       Uiso       1.00
      C455          C  0.1570330  0.1051622  0.9088599    0.00000       Uiso       1.00
      C456          C  0.1442849  0.1204827  0.8984854    0.00000       Uiso       1.00
      C457          C  0.1319135  0.1435945  0.9029071    0.00000       Uiso       1.00
      C458          C  0.1323484  0.1511744  0.9179146    0.00000       Uiso       1.00
      H325          H  0.1448479  0.1420828  0.9400629    0.00000       Uiso       1.00
      H326          H  0.1228256  0.1689347  0.9216842    0.00000       Uiso       1.00
      H327          H  0.1664660  0.0873701  0.9052805    0.00000       Uiso       1.00
      H328          H  0.1441477  0.1142325  0.8870075    0.00000       Uiso       1.00
      C459          C  0.2296309  0.0757992  0.1122952    0.00000       Uiso       1.00
      C460          C  0.2191337  0.0711767  0.1353647    0.00000       Uiso       1.00
      C461          C  0.2377778  0.0906853  0.1047100    0.00000       Uiso       1.00
      C462          C  0.2352053  0.1010598  0.1200305    0.00000       Uiso       1.00
      C463          C  0.2244649  0.0966381  0.1431423    0.00000       Uiso       1.00
      C464          C  0.2164502  0.0816305  0.1507222    0.00000       Uiso       1.00
      H329          H  0.2130423  0.0594823  0.1416305    0.00000       Uiso       1.00
      H330          H  0.2082127  0.0778610  0.1684825    0.00000       Uiso       1.00
      H331          H  0.2461368  0.0942646  0.0869179    0.00000       Uiso       1.00
      H332          H  0.2415927  0.1125376  0.1137804    0.00000       Uiso       1.00
      C465          C  0.1945425  0.8872499  0.0753477    0.00000       Uiso       1.00
      C466          C  0.2096623  0.8641804  0.0707252    0.00000       Uiso       1.00
      C467          C  0.1715095  0.8948351  0.0902338    0.00000       Uiso       1.00
      C468          C  0.1637075  0.8795146  0.1006083    0.00000       Uiso       1.00
      C469          C  0.1788696  0.8564028  0.0961865    0.00000       Uiso       1.00
      C470          C  0.2018919  0.8488229  0.0811790    0.00000       Uiso       1.00
      H333          H  0.2274481  0.8579146  0.0590308    0.00000       Uiso       1.00
      H334          H  0.2138990  0.8310626  0.0774094    0.00000       Uiso       1.00
      H335          H  0.1595712  0.9126272  0.0938131    0.00000       Uiso       1.00
      H336          H  0.1458423  0.8857648  0.1120861    0.00000       Uiso       1.00
      C471          C  0.3554397  0.9686590  0.9166476    0.00000       Uiso       1.00
      C472          C  0.3464177  0.9567842  0.9353229    0.00000       Uiso       1.00
      C473          C  0.3607112  0.9343494  0.9382196    0.00000       Uiso       1.00
      C474          C  0.3838456  0.9239175  0.9224443    0.00000       Uiso       1.00
      C475          C  0.3932583  0.9354986  0.9035220    0.00000       Uiso       1.00
      C476          C  0.3786049  0.9580209  0.9009355    0.00000       Uiso       1.00
      C477          C  0.1967703  0.0642229  0.9563320    0.00000       Uiso       1.00
      C478          C  0.1758736  0.0828983  0.9682069    0.00000       Uiso       1.00
      C479          C  0.2049118  0.0613262  0.9338972    0.00000       Uiso       1.00
      C480          C  0.1922092  0.0771015  0.9234654    0.00000       Uiso       1.00
      C481          C  0.1712155  0.0960238  0.9350464    0.00000       Uiso       1.00
      C482          C  0.1633465  0.0986103  0.9575688    0.00000       Uiso       1.00
      C483          C  0.2389797  0.0432131  0.0637708    0.00000       Uiso       1.00
      C484          C  0.2412013  0.0313382  0.0824460    0.00000       Uiso       1.00
      C485          C  0.2337348  0.0656480  0.0608742    0.00000       Uiso       1.00
      C486          C  0.2306621  0.0760798  0.0766494    0.00000       Uiso       1.00
      C487          C  0.2327337  0.0644987  0.0955716    0.00000       Uiso       1.00
      C488          C  0.2380163  0.0419763  0.0981580    0.00000       Uiso       1.00
      C489          C  0.2177799  0.9357743  0.0427616    0.00000       Uiso       1.00
      C490          C  0.2274335  0.9170989  0.0308868    0.00000       Uiso       1.00
      C491          C  0.2005896  0.9386711  0.0651965    0.00000       Uiso       1.00
      C492          C  0.1932306  0.9228958  0.0756283    0.00000       Uiso       1.00
      C493          C  0.2027403  0.9039735  0.0640472    0.00000       Uiso       1.00
      C494          C  0.2199803  0.9013869  0.0415249    0.00000       Uiso       1.00
      C495          C  0.3410144  0.9910952  0.9141723    0.00000       Uiso       1.00
      C496          C  0.3180843  0.0015511  0.9298504    0.00000       Uiso       1.00
      C497          C  0.3514993  0.9227813  0.9569826    0.00000       Uiso       1.00
      C498          C  0.3285553  0.9332269  0.9725820    0.00000       Uiso       1.00
      C499          C  0.2317176  0.0772161  0.0421113    0.00000       Uiso       1.00
      C500          C  0.2348187  0.0667704  0.0265119    0.00000       Uiso       1.00
      C501          C  0.1910385  0.9574342  0.0767645    0.00000       Uiso       1.00
      C502          C  0.1983831  0.9730335  0.0663188    0.00000       Uiso       1.00
      C503          C  0.2443340  0.9146235  0.0084507    0.00000       Uiso       1.00
      C504          C  0.2515857  0.9303024  0.9979948    0.00000       Uiso       1.00
      H337          H  0.2519873  0.9005070  0.9989099    0.00000       Uiso       1.00
      H338          H  0.2646455  0.9278041  0.9807061    0.00000       Uiso       1.00
      H339          H  0.1778023  0.9600919  0.0939790    0.00000       Uiso       1.00
      H340          H  0.1906306  0.9872484  0.0757895    0.00000       Uiso       1.00
      H341          H  0.3220930  0.9237562  0.9867968    0.00000       Uiso       1.00
      H342          H  0.3620778  0.9055668  0.9596402    0.00000       Uiso       1.00
      H343          H  0.3075228  0.0188398  0.9273521    0.00000       Uiso       1.00
      H344          H  0.3474782  0.0006360  0.9000550    0.00000       Uiso       1.00
      H345          H  0.2331003  0.0762412  0.0122972    0.00000       Uiso       1.00
      H346          H  0.2277391  0.0944307  0.0394538    0.00000       Uiso       1.00
       N81          N  0.2015394  0.0737974  0.8993332    0.00000       Uiso       1.00
      H347          H  0.1906374  0.0862977  0.8943678    0.00000       Uiso       1.00
      H348          H  0.2041177  0.0591082  0.8975691    0.00000       Uiso       1.00
       N82          N  0.1408911  0.1182049  0.9707850    0.00000       Uiso       1.00
      H349          H  0.1341239  0.1277716  0.9609739    0.00000       Uiso       1.00
      H350          H  0.1427533  0.1272939  0.9763610    0.00000       Uiso       1.00
       N83          N  0.2408774  0.0287601  0.1177524    0.00000       Uiso       1.00
      H351          H  0.2380780  0.0385712  0.1273191    0.00000       Uiso       1.00
      H352          H  0.2565455  0.0156715  0.1121886    0.00000       Uiso       1.00
       N84          N  0.2246358  0.1002121  0.0733455    0.00000       Uiso       1.00
      H353          H  0.2230376  0.1051774  0.0858457    0.00000       Uiso       1.00
      H354          H  0.2100950  0.1096160  0.0733066    0.00000       Uiso       1.00
       N85          N  0.1751244  0.9262000  0.0997604    0.00000       Uiso       1.00
      H355          H  0.1717574  0.9136997  0.1047258    0.00000       Uiso       1.00
      H356          H  0.1612494  0.9408892  0.1015245    0.00000       Uiso       1.00
       N86          N  0.2303357  0.8817923  0.0283087    0.00000       Uiso       1.00
      H357          H  0.2233239  0.8722257  0.0381198    0.00000       Uiso       1.00
      H358          H  0.2468628  0.8727033  0.0227328    0.00000       Uiso       1.00
       N87          N  0.3878441  0.9712371  0.8813410    0.00000       Uiso       1.00
      H359          H  0.4044224  0.9614260  0.8717743    0.00000       Uiso       1.00
      H360          H  0.3848597  0.9843258  0.8869048    0.00000       Uiso       1.00
       N88          N  0.3986476  0.8997853  0.9257484    0.00000       Uiso       1.00
      H361          H  0.4145150  0.8948199  0.9132481    0.00000       Uiso       1.00
      H362          H  0.3934719  0.8903813  0.9257874    0.00000       Uiso       1.00
      C505          C  0.2856849  0.0002148  0.9641550    0.00000       Uiso       1.00
      C506          C  0.2759029  0.9883178  0.9823725    0.00000       Uiso       1.00
      C507          C  0.2908954  0.9660970  0.9854000    0.00000       Uiso       1.00
      C508          C  0.3140928  0.9555311  0.9698468    0.00000       Uiso       1.00
      C509          C  0.3230744  0.9673758  0.9511613    0.00000       Uiso       1.00
      C510          C  0.3088389  0.9898568  0.9484141    0.00000       Uiso       1.00
      C511          C  0.2357516  0.0171734  0.9878656    0.00000       Uiso       1.00
      C512          C  0.2140730  0.0353908  0.9997622    0.00000       Uiso       1.00
      C513          C  0.2429800  0.0141459  0.9656447    0.00000       Uiso       1.00
      C514          C  0.2303484  0.0296991  0.9550789    0.00000       Uiso       1.00
      C515          C  0.2095222  0.0483845  0.9669235    0.00000       Uiso       1.00
      C516          C  0.2012766  0.0511318  0.9894046    0.00000       Uiso       1.00
      C517          C  0.2470480  0.0116795  0.0167212    0.00000       Uiso       1.00
      C518          C  0.2505094  0.9997824  0.0349385    0.00000       Uiso       1.00
      C519          C  0.2428470  0.0339004  0.0136938    0.00000       Uiso       1.00
      C520          C  0.2399253  0.0444663  0.0292470    0.00000       Uiso       1.00
      C521          C  0.2420663  0.0326216  0.0479324    0.00000       Uiso       1.00
      C522          C  0.2475648  0.0101405  0.0506795    0.00000       Uiso       1.00
      C523          C  0.2412452  0.9828238  0.0112281    0.00000       Uiso       1.00
      C524          C  0.2496802  0.9646072  0.9993311    0.00000       Uiso       1.00
      C525          C  0.2232252  0.9858514  0.0334489    0.00000       Uiso       1.00
      C526          C  0.2155809  0.9702982  0.0440147    0.00000       Uiso       1.00
      C527          C  0.2252849  0.9516127  0.0321701    0.00000       Uiso       1.00
      C528          C  0.2422676  0.9488654  0.0096891    0.00000       Uiso       1.00
      C529          C  0.1803377  0.0696946  0.0010989    0.00000       Uiso       1.00
      C530          C  0.1678626  0.0853736  0.9906430    0.00000       Uiso       1.00
      C531          C  0.2381901  0.0269638  0.9327747    0.00000       Uiso       1.00
      C532          C  0.2256918  0.0425632  0.9223291    0.00000       Uiso       1.00
      C533          C  0.2499406  0.9984461  0.0692431    0.00000       Uiso       1.00
      C534          C  0.2467371  0.0089020  0.0849212    0.00000       Uiso       1.00
      H363          H  0.1518589  0.0994902  0.0001838    0.00000       Uiso       1.00
      H364          H  0.1736105  0.0721930  0.0183876    0.00000       Uiso       1.00
      H365          H  0.2541232  0.0127491  0.9233040    0.00000       Uiso       1.00
      H366          H  0.2323278  0.0399056  0.9051145    0.00000       Uiso       1.00
      H367          H  0.2541697  0.9811573  0.0717413    0.00000       Uiso       1.00
      H368          H  0.2486241  0.9993612  0.0990384    0.00000       Uiso       1.00
       N89          N  0.2647914  0.9938741  0.9527547    0.00000       Uiso       1.00
      H369          H  0.2674894  0.9941978  0.9373907    0.00000       Uiso       1.00
      H370          H  0.2641723  0.9799907  0.9608161    0.00000       Uiso       1.00
       N90          N  0.2045012  0.0383362  0.0240589    0.00000       Uiso       1.00
      H371          H  0.1891245  0.0519052  0.0300790    0.00000       Uiso       1.00
      H372          H  0.2144453  0.0403209  0.0256925    0.00000       Uiso       1.00
       N91          N  0.2413066  0.0467912  0.9934220    0.00000       Uiso       1.00
      H373          H  0.2382848  0.0621553  0.9937458    0.00000       Uiso       1.00
      H374          H  0.2288003  0.0480878  0.9934228    0.00000       Uiso       1.00
       N92          N  0.2571355  0.9754861  0.0378847    0.00000       Uiso       1.00
      H375          H  0.2589432  0.9694660  0.0514536    0.00000       Uiso       1.00
      H376          H  0.2716855  0.9668980  0.0242821    0.00000       Uiso       1.00
       N93          N  0.2118750  0.0061233  0.0463388    0.00000       Uiso       1.00
      H377          H  0.1995327  0.0057996  0.0617029    0.00000       Uiso       1.00
      H378          H  0.2054340  0.0200067  0.0382775    0.00000       Uiso       1.00
       N94          N  0.2673508  0.9616609  0.9750347    0.00000       Uiso       1.00
      H379          H  0.2715631  0.9480919  0.9690146    0.00000       Uiso       1.00
      H380          H  0.2809130  0.9596763  0.9734012    0.00000       Uiso       1.00
       N95          N  0.2819744  0.9532062  0.0056719    0.00000       Uiso       1.00
      H381          H  0.2946405  0.9378422  0.0053481    0.00000       Uiso       1.00
      H382          H  0.2707655  0.9519095  0.0056711    0.00000       Uiso       1.00
       N96          N  0.2709607  0.0245111  0.9612088    0.00000       Uiso       1.00
      H383          H  0.2550713  0.0294154  0.9736231    0.00000       Uiso       1.00
      H384          H  0.2718256  0.0266946  0.9464182    0.00000       Uiso       1.00
      C535          C  0.6517091  0.6204574  0.3082144    0.00000       Uiso       1.00
      C536          C  0.6640931  0.6253569  0.2860240    0.00000       Uiso       1.00
      C537          C  0.6664673  0.6187189  0.2683986    0.00000       Uiso       1.00
      C538          C  0.6797516  0.6229371  0.2463350    0.00000       Uiso       1.00
      C539          C  0.6921633  0.6325922  0.2412585    0.00000       Uiso       1.00
      C540          C  0.6898026  0.6389130  0.2591892    0.00000       Uiso       1.00
      C541          C  0.6746154  0.6370878  0.2815110    0.00000       Uiso       1.00
        O1          O  0.6412269  0.6083202  0.3154579    0.00000       Uiso       1.00
      H385          H  0.7008098  0.6440489  0.2558264    0.00000       Uiso       1.00
      C542          C  0.7103108  0.7229962  0.2944316    0.00000       Uiso       1.00
      C543          C  0.7005091  0.7106178  0.2993406    0.00000       Uiso       1.00
      C544          C  0.6853144  0.7082573  0.3212477    0.00000       Uiso       1.00
      C545          C  0.6763673  0.6950827  0.3258766    0.00000       Uiso       1.00
      C546          C  0.6835267  0.6827802  0.3088943    0.00000       Uiso       1.00
      C547          C  0.6991362  0.6850806  0.2869931    0.00000       Uiso       1.00
      C548          C  0.7064185  0.7001569  0.2816411    0.00000       Uiso       1.00
        O2          O  0.7069525  0.7334887  0.3098863    0.00000       Uiso       1.00
      H386          H  0.6802927  0.7168422  0.3346965    0.00000       Uiso       1.00
      H387          H  0.6639840  0.6945282  0.3428459    0.00000       Uiso       1.00
      H388          H  0.7066717  0.6741394  0.2742036    0.00000       Uiso       1.00
      C549          C  0.7549229  0.6645195  0.1471856    0.00000       Uiso       1.00
      C550          C  0.7500526  0.6743047  0.1644431    0.00000       Uiso       1.00
      C551          C  0.7567847  0.6894900  0.1600789    0.00000       Uiso       1.00
      C552          C  0.7524965  0.6984273  0.1775547    0.00000       Uiso       1.00
      C553          C  0.7426762  0.6912674  0.1996786    0.00000       Uiso       1.00
      C554          C  0.7363546  0.6756765  0.2036760    0.00000       Uiso       1.00
      C555          C  0.7382630  0.6684104  0.1866760    0.00000       Uiso       1.00
        O3          O  0.7669650  0.6679904  0.1246134    0.00000       Uiso       1.00
      H389          H  0.7652054  0.6944980  0.1430617    0.00000       Uiso       1.00
      H390          H  0.7571050  0.7107968  0.1735010    0.00000       Uiso       1.00
      H391          H  0.7310966  0.6681200  0.2198565    0.00000       Uiso       1.00
      C556          C  0.7484019  0.6495134  0.1514196    0.00000       Uiso       1.00
      C557          C  0.7358367  0.6440590  0.1732441    0.00000       Uiso       1.00
      C558          C  0.7291099  0.6288382  0.1776716    0.00000       Uiso       1.00
      C559          C  0.7157478  0.6244243  0.1995974    0.00000       Uiso       1.00
      C560          C  0.7075594  0.6361827  0.2175802    0.00000       Uiso       1.00
      C561          C  0.7142436  0.6516637  0.2128035    0.00000       Uiso       1.00
      C562          C  0.7296761  0.6545090  0.1911267    0.00000       Uiso       1.00
        O4          O  0.7550042  0.6415988  0.1321061    0.00000       Uiso       1.00
      H392          H  0.7063903  0.6625295  0.2258046    0.00000       Uiso       1.00
      C563          C  0.7252930  0.7252727  0.2729127    0.00000       Uiso       1.00
      C564          C  0.7307432  0.7160174  0.2549084    0.00000       Uiso       1.00
      C565          C  0.7459557  0.7183748  0.2330118    0.00000       Uiso       1.00
      C566          C  0.7505282  0.7096996  0.2151722    0.00000       Uiso       1.00
      C567          C  0.7388943  0.6997573  0.2186887    0.00000       Uiso       1.00
      C568          C  0.7233436  0.6978989  0.2408360    0.00000       Uiso       1.00
      C569          C  0.7203584  0.7042540  0.2591530    0.00000       Uiso       1.00
        O5          O  0.7333382  0.7379055  0.2714840    0.00000       Uiso       1.00
      H393          H  0.7544048  0.7267969  0.2298621    0.00000       Uiso       1.00
      H394          H  0.7630885  0.7110267  0.1986869    0.00000       Uiso       1.00
      H395          H  0.7125484  0.6926497  0.2438202    0.00000       Uiso       1.00
      C570          C  0.6494874  0.6269783  0.3254592    0.00000       Uiso       1.00
      C571          C  0.6587486  0.6395205  0.3216629    0.00000       Uiso       1.00
      C572          C  0.6564023  0.6461893  0.3392371    0.00000       Uiso       1.00
      C573          C  0.6650805  0.6594498  0.3351549    0.00000       Uiso       1.00
      C574          C  0.6750244  0.6675657  0.3135887    0.00000       Uiso       1.00
      C575          C  0.6768808  0.6609688  0.2961770    0.00000       Uiso       1.00
      C576          C  0.6705124  0.6456478  0.2995405    0.00000       Uiso       1.00
        O6          O  0.6369306  0.6203268  0.3461646    0.00000       Uiso       1.00
      H396          H  0.6479805  0.6408747  0.3560901    0.00000       Uiso       1.00
      H397          H  0.6637520  0.6633608  0.3490498    0.00000       Uiso       1.00
      H398          H  0.6821306  0.6687557  0.2801279    0.00000       Uiso       1.00
        B1          B  0.6318951  0.6084043  0.3395106    0.00000       Uiso       1.00
        B2          B  0.7216195  0.7429575  0.2950925    0.00000       Uiso       1.00
        B3          B  0.7667909  0.6533765  0.1152615    0.00000       Uiso       1.00
      H399          H  0.6579044  0.6104069  0.2716739    0.00000       Uiso       1.00
      H400          H  0.6803384  0.6183205  0.2333857    0.00000       Uiso       1.00
      H401          H  0.7343352  0.6201908  0.1641765    0.00000       Uiso       1.00
      H402          H  0.7117605  0.6119068  0.2022086    0.00000       Uiso       1.00
      C577          C  0.5803882  0.3795395  0.6917741    0.00000       Uiso       1.00
      C578          C  0.5754813  0.3746401  0.7139645    0.00000       Uiso       1.00
      C579          C  0.5535920  0.3812780  0.7315899    0.00000       Uiso       1.00
      C580          C  0.5490310  0.3770598  0.7536534    0.00000       Uiso       1.00
      C581          C  0.5660213  0.3674047  0.7587300    0.00000       Uiso       1.00
      C582          C  0.5879121  0.3610840  0.7407992    0.00000       Uiso       1.00
      C583          C  0.5932214  0.3629091  0.7184775    0.00000       Uiso       1.00
        O7          O  0.5650124  0.3916767  0.6845306    0.00000       Uiso       1.00
      H403          H  0.6006924  0.3559480  0.7441620    0.00000       Uiso       1.00
      C584          C  0.7277460  0.2770006  0.7055569    0.00000       Uiso       1.00
      C585          C  0.7104748  0.2893791  0.7006478    0.00000       Uiso       1.00
      C586          C  0.7148267  0.2917396  0.6787408    0.00000       Uiso       1.00
      C587          C  0.6973339  0.3049142  0.6741119    0.00000       Uiso       1.00
      C588          C  0.6752085  0.3172167  0.6910942    0.00000       Uiso       1.00
      C589          C  0.6712173  0.3149162  0.7129954    0.00000       Uiso       1.00
      C590          C  0.6882239  0.2998400  0.7183474    0.00000       Uiso       1.00
        O8          O  0.7503349  0.2665081  0.6901021    0.00000       Uiso       1.00
      H404          H  0.7318387  0.2831547  0.6652920    0.00000       Uiso       1.00
      H405          H  0.7013654  0.3054687  0.6571425    0.00000       Uiso       1.00
      H406          H  0.6550221  0.3258575  0.7257848    0.00000       Uiso       1.00
      C591          C  0.5666354  0.3354774  0.8528028    0.00000       Uiso       1.00
      C592          C  0.5888076  0.3256921  0.8355454    0.00000       Uiso       1.00
      C593          C  0.6063608  0.3105069  0.8399096    0.00000       Uiso       1.00
      C594          C  0.6284858  0.3015696  0.8224337    0.00000       Uiso       1.00
      C595          C  0.6336296  0.3087294  0.8003098    0.00000       Uiso       1.00
      C596          C  0.6157144  0.3243204  0.7963125    0.00000       Uiso       1.00
      C597          C  0.5933567  0.3315865  0.8133125    0.00000       Uiso       1.00
        O9          O  0.5595760  0.3320065  0.8753751    0.00000       Uiso       1.00
      H407          H  0.6027724  0.3054989  0.8569268    0.00000       Uiso       1.00
      H408          H  0.6414101  0.2892000  0.8264875    0.00000       Uiso       1.00
      H409          H  0.6190805  0.3318769  0.7801320    0.00000       Uiso       1.00
      C598          C  0.5493422  0.3504835  0.8485689    0.00000       Uiso       1.00
      C599          C  0.5531471  0.3559379  0.8267444    0.00000       Uiso       1.00
      C600          C  0.5356269  0.3711587  0.8223169    0.00000       Uiso       1.00
      C601          C  0.5397767  0.3755726  0.8003911    0.00000       Uiso       1.00
      C602          C  0.5613296  0.3638142  0.7824082    0.00000       Uiso       1.00
      C603          C  0.5787181  0.3483332  0.7871850    0.00000       Uiso       1.00
      C604          C  0.5753191  0.3454879  0.8088618    0.00000       Uiso       1.00
       O10          O  0.5287163  0.3583982  0.8678824    0.00000       Uiso       1.00
      H410          H  0.5947317  0.3374673  0.7741839    0.00000       Uiso       1.00
      C605          C  0.7234856  0.2747243  0.7270758    0.00000       Uiso       1.00
      C606          C  0.7016763  0.2839795  0.7450801    0.00000       Uiso       1.00
      C607          C  0.6973497  0.2816220  0.7669767    0.00000       Uiso       1.00
      C608          C  0.6754072  0.2902973  0.7848163    0.00000       Uiso       1.00
      C609          C  0.6573477  0.3002396  0.7812997    0.00000       Uiso       1.00
      C610          C  0.6620858  0.3020980  0.7591524    0.00000       Uiso       1.00
      C611          C  0.6837728  0.2957429  0.7408354    0.00000       Uiso       1.00
       O11          O  0.7427350  0.2620914  0.7285045    0.00000       Uiso       1.00
      H411          H  0.7110710  0.2732000  0.7701264    0.00000       Uiso       1.00
      H412          H  0.6728094  0.2889702  0.8013015    0.00000       Uiso       1.00
      H413          H  0.6490257  0.3073471  0.7561682    0.00000       Uiso       1.00
      C612          C  0.6019322  0.3730186  0.6745293    0.00000       Uiso       1.00
      C613          C  0.6199393  0.3604764  0.6783256    0.00000       Uiso       1.00
      C614          C  0.6418360  0.3538076  0.6607513    0.00000       Uiso       1.00
      C615          C  0.6596925  0.3405471  0.6648336    0.00000       Uiso       1.00
      C616          C  0.6561862  0.3324312  0.6863997    0.00000       Uiso       1.00
      C617          C  0.6340340  0.3390281  0.7038115    0.00000       Uiso       1.00
      C618          C  0.6157080  0.3543491  0.7004480    0.00000       Uiso       1.00
       O12          O  0.6034293  0.3796701  0.6538239    0.00000       Uiso       1.00
      H414          H  0.6449525  0.3591222  0.6438984    0.00000       Uiso       1.00
      H415          H  0.6761698  0.3366361  0.6509387    0.00000       Uiso       1.00
      H416          H  0.6310214  0.3312413  0.7198606    0.00000       Uiso       1.00
        B4          B  0.5798174  0.3915926  0.6604778    0.00000       Uiso       1.00
        B5          B  0.7596769  0.2570394  0.7048960    0.00000       Uiso       1.00
        B6          B  0.5354361  0.3466205  0.8847269    0.00000       Uiso       1.00
      H417          H  0.5399926  0.3895900  0.7283146    0.00000       Uiso       1.00
      H418          H  0.5320519  0.3816764  0.7666028    0.00000       Uiso       1.00
      H419          H  0.5187098  0.3798060  0.8358120    0.00000       Uiso       1.00
      H420          H  0.5258831  0.3880901  0.7977799    0.00000       Uiso       1.00
      C619          C  0.5957336  0.1472387  0.3375221    0.00000       Uiso       1.00
      C620          C  0.5818272  0.1645046  0.3292471    0.00000       Uiso       1.00
      C621          C  0.5752351  0.1601835  0.3182707    0.00000       Uiso       1.00
      C622          C  0.5621945  0.1776701  0.3091842    0.00000       Uiso       1.00
      C623          C  0.5566157  0.1997309  0.3096565    0.00000       Uiso       1.00
      C624          C  0.5636497  0.2037003  0.3205421    0.00000       Uiso       1.00
      C625          C  0.5746847  0.1867237  0.3318447    0.00000       Uiso       1.00
       O13          O  0.6046622  0.1246736  0.3357491    0.00000       Uiso       1.00
      H421          H  0.5801671  0.1431970  0.3168945    0.00000       Uiso       1.00
      H422          H  0.5567346  0.1736899  0.3016697    0.00000       Uiso       1.00
      H423          H  0.5617092  0.2198334  0.3191178    0.00000       Uiso       1.00
      C626          C  0.5374337  0.3082338  0.3820206    0.00000       Uiso       1.00
      C627          C  0.5457187  0.2860561  0.3786449    0.00000       Uiso       1.00
      C628          C  0.5567030  0.2684927  0.3895475    0.00000       Uiso       1.00
      C629          C  0.5657993  0.2463696  0.3850860    0.00000       Uiso       1.00
      C630          C  0.5653291  0.2412626  0.3685996    0.00000       Uiso       1.00
      C631          C  0.5544356  0.2591772  0.3576070    0.00000       Uiso       1.00
      C632          C  0.5431231  0.2815098  0.3635631    0.00000       Uiso       1.00
       O14          O  0.5392034  0.3153902  0.3956643    0.00000       Uiso       1.00
      H424          H  0.5580774  0.2720501  0.4016054    0.00000       Uiso       1.00
      H425          H  0.5733196  0.2333988  0.3945180    0.00000       Uiso       1.00
      H426          H  0.5558614  0.2558129  0.3434121    0.00000       Uiso       1.00
      C633          C  0.4929414  0.2944125  0.2792930    0.00000       Uiso       1.00
      C634          C  0.4963148  0.2993236  0.2931915    0.00000       Uiso       1.00
      C635          C  0.4854025  0.3212056  0.2997855    0.00000       Uiso       1.00
      C636          C  0.4898621  0.3258423  0.3128184    0.00000       Uiso       1.00
      C637          C  0.5063562  0.3088930  0.3183875    0.00000       Uiso       1.00
      C638          C  0.5173585  0.2870120  0.3113516    0.00000       Uiso       1.00
      C639          C  0.5114045  0.2816530  0.3003242    0.00000       Uiso       1.00
       O15          O  0.4792907  0.3098196  0.2703745    0.00000       Uiso       1.00
      H427          H  0.4733383  0.3346331  0.2948610    0.00000       Uiso       1.00
      H428          H  0.4804226  0.3427904  0.3182800    0.00000       Uiso       1.00
      H429          H  0.5315592  0.2742493  0.3132850    0.00000       Uiso       1.00
      C640          C  0.5040307  0.2729597  0.2724414    0.00000       Uiso       1.00
      C641          C  0.5181116  0.2549529  0.2801667    0.00000       Uiso       1.00
      C642          C  0.5290162  0.2330623  0.2736003    0.00000       Uiso       1.00
      C643          C  0.5421484  0.2152095  0.2824115    0.00000       Uiso       1.00
      C644          C  0.5435538  0.2187290  0.2990284    0.00000       Uiso       1.00
      C645          C  0.5322370  0.2408718  0.3056084    0.00000       Uiso       1.00
      C646          C  0.5209439  0.2591813  0.2952304    0.00000       Uiso       1.00
       O16          O  0.4989689  0.2715695  0.2582487    0.00000       Uiso       1.00
      H430          H  0.5273613  0.2299231  0.2615383    0.00000       Uiso       1.00
      H431          H  0.5509675  0.1987078  0.2762265    0.00000       Uiso       1.00
      H432          H  0.5310596  0.2438672  0.3198136    0.00000       Uiso       1.00
      C647          C  0.5270557  0.3254492  0.3709410    0.00000       Uiso       1.00
      C648          C  0.5231155  0.3216546  0.3568679    0.00000       Uiso       1.00
      C649          C  0.5121148  0.3392072  0.3459732    0.00000       Uiso       1.00
      C650          C  0.5073806  0.3351204  0.3328487    0.00000       Uiso       1.00
      C651          C  0.5123065  0.3135816  0.3314413    0.00000       Uiso       1.00
      C652          C  0.5231471  0.2961752  0.3427484    0.00000       Uiso       1.00
      C653          C  0.5301766  0.2995346  0.3540336    0.00000       Uiso       1.00
       O17          O  0.5206057  0.3460885  0.3760033    0.00000       Uiso       1.00
      H433          H  0.5073202  0.3560602  0.3476300    0.00000       Uiso       1.00
      H434          H  0.4996866  0.3489888  0.3240371    0.00000       Uiso       1.00
      H435          H  0.5249670  0.2801524  0.3439244    0.00000       Uiso       1.00
      C654          C  0.6025836  0.1514791  0.3478924    0.00000       Uiso       1.00
      C655          C  0.5948488  0.1732818  0.3518344    0.00000       Uiso       1.00
      C656          C  0.6014135  0.1776230  0.3628271    0.00000       Uiso       1.00
      C657          C  0.5925925  0.1995625  0.3675632    0.00000       Uiso       1.00
      C658          C  0.5759674  0.2175774  0.3626472    0.00000       Uiso       1.00
      C659          C  0.5693892  0.2128377  0.3518145    0.00000       Uiso       1.00
      C660          C  0.5797768  0.1911713  0.3447833    0.00000       Uiso       1.00
       O18          O  0.6167852  0.1322307  0.3543329    0.00000       Uiso       1.00
      H436          H  0.6134817  0.1639121  0.3676142    0.00000       Uiso       1.00
      H437          H  0.5987764  0.2021996  0.3752508    0.00000       Uiso       1.00
      H438          H  0.5551780  0.2258592  0.3500020    0.00000       Uiso       1.00
        B7          B  0.6179922  0.1153061  0.3465104    0.00000       Uiso       1.00
        B8          B  0.5284311  0.3394767  0.3917184    0.00000       Uiso       1.00
        B9          B  0.4832432  0.2951030  0.2570490    0.00000       Uiso       1.00
      C661          C  0.0805015  0.8527582  0.6624663    0.00000       Uiso       1.00
      C662          C  0.0755861  0.8354923  0.6707414    0.00000       Uiso       1.00
      C663          C  0.0536965  0.8398134  0.6817178    0.00000       Uiso       1.00
      C664          C  0.0490560  0.8223268  0.6908042    0.00000       Uiso       1.00
      C665          C  0.0660102  0.8002660  0.6903320    0.00000       Uiso       1.00
      C666          C  0.0878993  0.7962965  0.6794464    0.00000       Uiso       1.00
      C667          C  0.0932603  0.8132731  0.6681438    0.00000       Uiso       1.00
       O19          O  0.0650920  0.8753233  0.6642394    0.00000       Uiso       1.00
      H439          H  0.0402659  0.8567998  0.6830939    0.00000       Uiso       1.00
      H440          H  0.0321013  0.8263070  0.6983188    0.00000       Uiso       1.00
      H441          H  0.1006676  0.7801635  0.6808707    0.00000       Uiso       1.00
      C668          C  0.2276952  0.6917631  0.6179680    0.00000       Uiso       1.00
      C669          C  0.2104270  0.7139407  0.6213436    0.00000       Uiso       1.00
      C670          C  0.2147504  0.7315042  0.6104410    0.00000       Uiso       1.00
      C671          C  0.1972621  0.7536273  0.6149024    0.00000       Uiso       1.00
      C672          C  0.1751985  0.7587343  0.6313889    0.00000       Uiso       1.00
      C673          C  0.1712270  0.7408197  0.6423815    0.00000       Uiso       1.00
      C674          C  0.1882033  0.7184871  0.6364254    0.00000       Uiso       1.00
       O20          O  0.2502651  0.6846067  0.6043242    0.00000       Uiso       1.00
      H442          H  0.2317400  0.7279469  0.5983831    0.00000       Uiso       1.00
      H443          H  0.2012436  0.7665981  0.6054705    0.00000       Uiso       1.00
      H444          H  0.1550936  0.7441841  0.6565763    0.00000       Uiso       1.00
      C675          C  0.0666541  0.7055844  0.7206955    0.00000       Uiso       1.00
      C676          C  0.0888371  0.7006733  0.7067969    0.00000       Uiso       1.00
      C677          C  0.1064008  0.6787913  0.7002030    0.00000       Uiso       1.00
      C678          C  0.1285300  0.6741546  0.6871701    0.00000       Uiso       1.00
      C679          C  0.1336440  0.6911039  0.6816009    0.00000       Uiso       1.00
      C680          C  0.1157294  0.7129849  0.6886368    0.00000       Uiso       1.00
      C681          C  0.0933890  0.7183439  0.6996643    0.00000       Uiso       1.00
       O21          O  0.0594921  0.6901773  0.7296139    0.00000       Uiso       1.00
      H445          H  0.1028396  0.6653638  0.7051275    0.00000       Uiso       1.00
      H446          H  0.1415002  0.6572065  0.6817084    0.00000       Uiso       1.00
      H447          H  0.1191008  0.7257476  0.6867034    0.00000       Uiso       1.00
      C682          C  0.0494389  0.7270373  0.7275470    0.00000       Uiso       1.00
      C683          C  0.0532384  0.7450440  0.7198218    0.00000       Uiso       1.00
      C684          C  0.0356859  0.7669346  0.7263883    0.00000       Uiso       1.00
      C685          C  0.0397767  0.7847874  0.7175769    0.00000       Uiso       1.00
      C686          C  0.0613184  0.7812679  0.7009600    0.00000       Uiso       1.00
      C687          C  0.0787244  0.7591251  0.6943800    0.00000       Uiso       1.00
      C688          C  0.0753628  0.7408156  0.7047580    0.00000       Uiso       1.00
       O22          O  0.0287944  0.7284274  0.7417397    0.00000       Uiso       1.00
      H448          H  0.0188300  0.7700738  0.7384501    0.00000       Uiso       1.00
      H449          H  0.0259090  0.8012891  0.7237620    0.00000       Uiso       1.00
      H450          H  0.0947477  0.7561296  0.6801749    0.00000       Uiso       1.00
      C689          C  0.2234532  0.6745477  0.6290475    0.00000       Uiso       1.00
      C690          C  0.2016452  0.6783424  0.6431205    0.00000       Uiso       1.00
      C691          C  0.1973024  0.6607897  0.6540153    0.00000       Uiso       1.00
      C692          C  0.1753569  0.6648765  0.6671398    0.00000       Uiso       1.00
      C693          C  0.1573366  0.6864154  0.6685472    0.00000       Uiso       1.00
      C694          C  0.1620780  0.7038217  0.6572400    0.00000       Uiso       1.00
      C695          C  0.1837521  0.7004623  0.6459548    0.00000       Uiso       1.00
       O23          O  0.2427048  0.6539084  0.6239852    0.00000       Uiso       1.00
      H451          H  0.2110176  0.6439367  0.6523585    0.00000       Uiso       1.00
      H452          H  0.1727197  0.6510081  0.6759514    0.00000       Uiso       1.00
      H453          H  0.1490508  0.7198445  0.6560641    0.00000       Uiso       1.00
      C696          C  0.1019623  0.8485178  0.6520961    0.00000       Uiso       1.00
      C697          C  0.1199723  0.8267151  0.6481541    0.00000       Uiso       1.00
      C698          C  0.1418708  0.8223739  0.6371614    0.00000       Uiso       1.00
      C699          C  0.1597254  0.8004344  0.6324252    0.00000       Uiso       1.00
      C700          C  0.1561993  0.7824195  0.6373412    0.00000       Uiso       1.00
      C701          C  0.1340486  0.7871592  0.6481739    0.00000       Uiso       1.00
      C702          C  0.1157386  0.8088256  0.6552051    0.00000       Uiso       1.00
       O24          O  0.1033560  0.8677663  0.6456556    0.00000       Uiso       1.00
      H454          H  0.1450152  0.8360848  0.6323743    0.00000       Uiso       1.00
      H455          H  0.1762340  0.7977973  0.6247377    0.00000       Uiso       1.00
      H456          H  0.1310464  0.7741377  0.6499865    0.00000       Uiso       1.00
       B10          B  0.0798160  0.8846908  0.6534781    0.00000       Uiso       1.00
       B11          B  0.2596334  0.6605202  0.6082701    0.00000       Uiso       1.00
       B12          B  0.0354025  0.7048938  0.7429394    0.00000       Uiso       1.00
      C703          C  0.9952282  0.3530154  0.8347784    0.00000       Uiso       1.00
      C704          C  0.0001157  0.3357419  0.8249666    0.00000       Uiso       1.00
      C705          C  0.9934600  0.3400135  0.8097270    0.00000       Uiso       1.00
      C706          C  0.9976662  0.3225209  0.8009419    0.00000       Uiso       1.00
      C707          C  0.0073269  0.3004563  0.8082597    0.00000       Uiso       1.00
      C708          C  0.0136654  0.2964883  0.8238181    0.00000       Uiso       1.00
      C709          C  0.0118525  0.3134908  0.8309579    0.00000       Uiso       1.00
       O25          O  0.9830875  0.3756315  0.8315569    0.00000       Uiso       1.00
      H457          H  0.0188055  0.2803468  0.8314495    0.00000       Uiso       1.00
      C710          C  0.0978270  0.1918812  0.8794593    0.00000       Uiso       1.00
      C711          C  0.0854430  0.2140591  0.8745843    0.00000       Uiso       1.00
      C712          C  0.0830942  0.2316045  0.8813027    0.00000       Uiso       1.00
      C713          C  0.0699139  0.2537241  0.8770021    0.00000       Uiso       1.00
      C714          C  0.0575939  0.2588748  0.8671914    0.00000       Uiso       1.00
      C715          C  0.0598828  0.2409746  0.8608935    0.00000       Uiso       1.00
      C716          C  0.0749643  0.2186184  0.8628062    0.00000       Uiso       1.00
       O26          O  0.1083365  0.1847400  0.8915425    0.00000       Uiso       1.00
      H458          H  0.0916928  0.2280353  0.8897205    0.00000       Uiso       1.00
      H459          H  0.0693688  0.2666543  0.8815921    0.00000       Uiso       1.00
      H460          H  0.0489285  0.2443860  0.8556484    0.00000       Uiso       1.00
      C717          C  0.0392125  0.2058115  0.7769037    0.00000       Uiso       1.00
      C718          C  0.0490153  0.2008889  0.7892787    0.00000       Uiso       1.00
      C719          C  0.0642064  0.1789735  0.7916290    0.00000       Uiso       1.00
      C720          C  0.0731614  0.1743166  0.8048047    0.00000       Uiso       1.00
      C721          C  0.0660137  0.1912868  0.8171137    0.00000       Uiso       1.00
      C722          C  0.0504166  0.2131976  0.8148071    0.00000       Uiso       1.00
      C723          C  0.0431329  0.2185629  0.7997279    0.00000       Uiso       1.00
       O27          O  0.0426700  0.1903087  0.7663697    0.00000       Uiso       1.00
      H461          H  0.0692052  0.1655523  0.7830282    0.00000       Uiso       1.00
      H462          H  0.0855349  0.1573403  0.8053461    0.00000       Uiso       1.00
      H463          H  0.0428688  0.2260048  0.8257339    0.00000       Uiso       1.00
      C724          C  0.0242005  0.2273366  0.7746341    0.00000       Uiso       1.00
      C725          C  0.0187575  0.2453465  0.7838997    0.00000       Uiso       1.00
      C726          C  0.0035308  0.2672922  0.7816181    0.00000       Uiso       1.00
      C727          C  0.9991285  0.2850584  0.7901879    0.00000       Uiso       1.00
      C728          C  0.0109047  0.2814803  0.7999710    0.00000       Uiso       1.00
      C729          C  0.0263913  0.2593172  0.8018609    0.00000       Uiso       1.00
      C730          C  0.0292254  0.2410491  0.7956099    0.00000       Uiso       1.00
       O28          O  0.0162679  0.2286576  0.7619327    0.00000       Uiso       1.00
      H464          H  0.0372702  0.2562989  0.8070001    0.00000       Uiso       1.00
      C731          C  0.1000918  0.1746321  0.8729169    0.00000       Uiso       1.00
      C732          C  0.0908188  0.1784452  0.8603742    0.00000       Uiso       1.00
      C733          C  0.0931645  0.1608851  0.8536842    0.00000       Uiso       1.00
      C734          C  0.0844715  0.1649958  0.8404287    0.00000       Uiso       1.00
      C735          C  0.0745227  0.1865703  0.8323291    0.00000       Uiso       1.00
      C736          C  0.0726763  0.2039697  0.8389313    0.00000       Uiso       1.00
      C737          C  0.0790493  0.2005915  0.8542520    0.00000       Uiso       1.00
       O29          O  0.1127327  0.1539548  0.8795154    0.00000       Uiso       1.00
      H465          H  0.1015913  0.1440155  0.8589697    0.00000       Uiso       1.00
      H466          H  0.0857901  0.1511158  0.8364987    0.00000       Uiso       1.00
      H467          H  0.0674226  0.2200126  0.8311334    0.00000       Uiso       1.00
      C738          C  0.0017666  0.3487085  0.8497900    0.00000       Uiso       1.00
      C739          C  0.0143152  0.3269068  0.8552371    0.00000       Uiso       1.00
      C740          C  0.0210017  0.3225765  0.8704532    0.00000       Uiso       1.00
      C741          C  0.0342683  0.3006396  0.8750314    0.00000       Uiso       1.00
      C742          C  0.0423730  0.2825895  0.8634027    0.00000       Uiso       1.00
      C743          C  0.0357584  0.2873377  0.8478594    0.00000       Uiso       1.00
      C744          C  0.0204307  0.3090256  0.8448724    0.00000       Uiso       1.00
       O30          O  0.9951249  0.3679076  0.8579466    0.00000       Uiso       1.00
      H468          H  0.0156959  0.3363054  0.8788892    0.00000       Uiso       1.00
      H469          H  0.0381929  0.2980510  0.8875893    0.00000       Uiso       1.00
      H470          H  0.0435367  0.2743083  0.8370556    0.00000       Uiso       1.00
       B13          B  0.9831889  0.3848685  0.8462753    0.00000       Uiso       1.00
       B14          B  0.1178028  0.1606109  0.8914007    0.00000       Uiso       1.00
       B15          B  0.0280411  0.2051008  0.7568612    0.00000       Uiso       1.00
      H471          H  0.9851434  0.3568869  0.8044531    0.00000       Uiso       1.00
      H472          H  0.9930364  0.3265564  0.7885888    0.00000       Uiso       1.00
      H473          H  0.9948697  0.2707203  0.7733573    0.00000       Uiso       1.00
      H474          H  0.9866059  0.3015620  0.7888253    0.00000       Uiso       1.00
      C745          C  0.5217990  0.8821962  0.8085711    0.00000       Uiso       1.00
      C746          C  0.5390590  0.8788404  0.7863905    0.00000       Uiso       1.00
      C747          C  0.5347233  0.8897585  0.7688366    0.00000       Uiso       1.00
      C748          C  0.5522037  0.8853166  0.7467096    0.00000       Uiso       1.00
      C749          C  0.5742723  0.8688344  0.7415881    0.00000       Uiso       1.00
      C750          C  0.5782564  0.8578261  0.7594930    0.00000       Uiso       1.00
      C751          C  0.5612873  0.8637626  0.7818309    0.00000       Uiso       1.00
       O31          O  0.4992263  0.8958336  0.8157396    0.00000       Uiso       1.00
      H475          H  0.5177302  0.9018136  0.7724038    0.00000       Uiso       1.00
      H476          H  0.5482126  0.8947601  0.7337469    0.00000       Uiso       1.00
      H477          H  0.5943946  0.8436341  0.7561162    0.00000       Uiso       1.00
      C752          C  0.6828799  0.7794812  0.7946579    0.00000       Uiso       1.00
      C753          C  0.6606930  0.7933754  0.7995811    0.00000       Uiso       1.00
      C754          C  0.6431363  0.7999497  0.8214689    0.00000       Uiso       1.00
      C755          C  0.6210034  0.8129785  0.8261175    0.00000       Uiso       1.00
      C756          C  0.6158792  0.8185630  0.8091732    0.00000       Uiso       1.00
      C757          C  0.6337870  0.8115468  0.7872858    0.00000       Uiso       1.00
      C758          C  0.6561300  0.8005239  0.7819170    0.00000       Uiso       1.00
       O32          O  0.6900524  0.7705492  0.8100572    0.00000       Uiso       1.00
      H478          H  0.6467067  0.7950125  0.8348916    0.00000       Uiso       1.00
      H479          H  0.6080386  0.8184248  0.8430706    0.00000       Uiso       1.00
      H480          H  0.6304091  0.8134917  0.7745249    0.00000       Uiso       1.00
      C759          C  0.6689406  0.8378406  0.6475362    0.00000       Uiso       1.00
      C760          C  0.6738678  0.8295498  0.6647945    0.00000       Uiso       1.00
      C761          C  0.6957607  0.8185773  0.6604634    0.00000       Uiso       1.00
      C762          C  0.7004132  0.8094752  0.6779418    0.00000       Uiso       1.00
      C763          C  0.6834687  0.8099278  0.7000030    0.00000       Uiso       1.00
      C764          C  0.6615764  0.8208097  0.7039824    0.00000       Uiso       1.00
      C765          C  0.6562026  0.8321275  0.6870161    0.00000       Uiso       1.00
       O33          O  0.6843407  0.8360881  0.6249694    0.00000       Uiso       1.00
      H481          H  0.7091845  0.8172161  0.6434757    0.00000       Uiso       1.00
      H482          H  0.7173694  0.8019642  0.6739548    0.00000       Uiso       1.00
      H483          H  0.6488161  0.8193709  0.7201142    0.00000       Uiso       1.00
      C766          C  0.6474771  0.8482072  0.6517862    0.00000       Uiso       1.00
      C767          C  0.6294755  0.8521295  0.6735924    0.00000       Uiso       1.00
      C768          C  0.6075741  0.8631185  0.6779434    0.00000       Uiso       1.00
      C769          C  0.5897270  0.8678351  0.6998872    0.00000       Uiso       1.00
      C770          C  0.5932635  0.8629029  0.7178977    0.00000       Uiso       1.00
      C771          C  0.6154171  0.8520740  0.7131482    0.00000       Uiso       1.00
      C772          C  0.6337205  0.8450622  0.6914755    0.00000       Uiso       1.00
       O34          O  0.6460714  0.8546654  0.6325438    0.00000       Uiso       1.00
      H484          H  0.6044220  0.8679180  0.6642363    0.00000       Uiso       1.00
      H485          H  0.5732164  0.8755205  0.7025309    0.00000       Uiso       1.00
      H486          H  0.6184260  0.8502495  0.7261680    0.00000       Uiso       1.00
      C773          C  0.7000884  0.7726488  0.7731992    0.00000       Uiso       1.00
      C774          C  0.6962778  0.7803898  0.7551991    0.00000       Uiso       1.00
      C775          C  0.7138236  0.7738428  0.7333028    0.00000       Uiso       1.00
      C776          C  0.7097211  0.7826696  0.7154577    0.00000       Uiso       1.00
      C777          C  0.6881736  0.7992832  0.7189918    0.00000       Uiso       1.00
      C778          C  0.6707745  0.8058438  0.7411403    0.00000       Uiso       1.00
      C779          C  0.6741485  0.7954500  0.7594407    0.00000       Uiso       1.00
       O35          O  0.7207387  0.7584571  0.7717965    0.00000       Uiso       1.00
      H487          H  0.7306834  0.7617837  0.7301533    0.00000       Uiso       1.00
      H488          H  0.7235844  0.7764992  0.6989506    0.00000       Uiso       1.00
      H489          H  0.6547462  0.8200464  0.7441483    0.00000       Uiso       1.00
      C780          C  0.5260537  0.8711012  0.8257768    0.00000       Uiso       1.00
      C781          C  0.5478662  0.8570315  0.8219697    0.00000       Uiso       1.00
      C782          C  0.5522220  0.8461208  0.8395125    0.00000       Uiso       1.00
      C783          C  0.5741718  0.8330001  0.8354137    0.00000       Uiso       1.00
      C784          C  0.5921828  0.8316125  0.8138736    0.00000       Uiso       1.00
      C785          C  0.5874284  0.8429353  0.7964776    0.00000       Uiso       1.00
      C786          C  0.5657507  0.8542172  0.7998473    0.00000       Uiso       1.00
       O36          O  0.5068087  0.8761452  0.8464206    0.00000       Uiso       1.00
      H490          H  0.5385147  0.8477614  0.8563671    0.00000       Uiso       1.00
      H491          H  0.5768195  0.8241758  0.8492738    0.00000       Uiso       1.00
      H492          H  0.6004477  0.8441257  0.7804558    0.00000       Uiso       1.00
       B16          B  0.4898702  0.8918662  0.8398227    0.00000       Uiso       1.00
       B17          B  0.7141414  0.7572366  0.7953289    0.00000       Uiso       1.00
       B18          B  0.6696073  0.8468582  0.6156120    0.00000       Uiso       1.00
      C787          C  0.0223221  0.7947866  0.2231068    0.00000       Uiso       1.00
      C788          C  0.0396023  0.7997068  0.2107205    0.00000       Uiso       1.00
      C789          C  0.0353345  0.8215952  0.2083493    0.00000       Uiso       1.00
      C790          C  0.0528328  0.8261700  0.1950632    0.00000       Uiso       1.00
      C791          C  0.0748986  0.8091951  0.1826471    0.00000       Uiso       1.00
      C792          C  0.0788624  0.7873051  0.1850050    0.00000       Uiso       1.00
      C793          C  0.0618560  0.7819814  0.2001931    0.00000       Uiso       1.00
       O37          O  0.9997020  0.8101476  0.2335943    0.00000       Uiso       1.00
      H493          H  0.0950029  0.7745370  0.1739956    0.00000       Uiso       1.00
      C794          C  0.1834824  0.6475272  0.1644593    0.00000       Uiso       1.00
      C795          C  0.1613011  0.6647840  0.1742665    0.00000       Uiso       1.00
      C796          C  0.1437516  0.6604175  0.1894622    0.00000       Uiso       1.00
      C797          C  0.1216280  0.6778965  0.1984152    0.00000       Uiso       1.00
      C798          C  0.1164762  0.7000227  0.1912613    0.00000       Uiso       1.00
      C799          C  0.1343802  0.7040289  0.1756508    0.00000       Uiso       1.00
      C800          C  0.1567423  0.6870356  0.1683617    0.00000       Uiso       1.00
       O38          O  0.1906228  0.6249399  0.1678128    0.00000       Uiso       1.00
      H494          H  0.1473209  0.6434048  0.1944800    0.00000       Uiso       1.00
      H495          H  0.1086954  0.6738536  0.2107987    0.00000       Uiso       1.00
      H496          H  0.1309662  0.7202259  0.1681201    0.00000       Uiso       1.00
      C801          C  0.1695717  0.8086514  0.1198734    0.00000       Uiso       1.00
      C802          C  0.1744931  0.7864792  0.1247393    0.00000       Uiso       1.00
      C803          C  0.1964143  0.7689388  0.1180004    0.00000       Uiso       1.00
      C804          C  0.2010693  0.7468140  0.1222846    0.00000       Uiso       1.00
      C805          C  0.1840904  0.7416582  0.1321080    0.00000       Uiso       1.00
      C806          C  0.1621736  0.7595608  0.1384367    0.00000       Uiso       1.00
      C807          C  0.1568118  0.7819170  0.1365315    0.00000       Uiso       1.00
       O39          O  0.1850808  0.8157231  0.1078298    0.00000       Uiso       1.00
      H497          H  0.2098416  0.7725369  0.1095774    0.00000       Uiso       1.00
      H498          H  0.2180509  0.7338994  0.1176706    0.00000       Uiso       1.00
      H499          H  0.1493582  0.7561867  0.1436980    0.00000       Uiso       1.00
      C808          C  0.1480409  0.8259320  0.1264010    0.00000       Uiso       1.00
      C809          C  0.1300244  0.8221135  0.1389687    0.00000       Uiso       1.00
      C810          C  0.1080729  0.8396208  0.1457023    0.00000       Uiso       1.00
      C811          C  0.0903009  0.8354571  0.1590664    0.00000       Uiso       1.00
      C812          C  0.0938798  0.8139022  0.1672495    0.00000       Uiso       1.00
      C813          C  0.1160490  0.7965266  0.1605583    0.00000       Uiso       1.00
      C814          C  0.1343212  0.7999406  0.1451246    0.00000       Uiso       1.00
       O40          O  0.1467220  0.8465602  0.1198023    0.00000       Uiso       1.00
      H500          H  0.1190699  0.7805108  0.1684068    0.00000       Uiso       1.00
      C815          C  0.2007354  0.6518019  0.1494759    0.00000       Uiso       1.00
      C816          C  0.1969237  0.6736120  0.1440300    0.00000       Uiso       1.00
      C817          C  0.2144879  0.6779533  0.1288164    0.00000       Uiso       1.00
      C818          C  0.2103792  0.6998959  0.1242479    0.00000       Uiso       1.00
      C819          C  0.1888039  0.7179406  0.1358861    0.00000       Uiso       1.00
      C820          C  0.1714007  0.7131878  0.1514377    0.00000       Uiso       1.00
      C821          C  0.1747749  0.6915010  0.1544200    0.00000       Uiso       1.00
       O41          O  0.2214154  0.6325654  0.1414252    0.00000       Uiso       1.00
      H501          H  0.2313589  0.6642433  0.1203637    0.00000       Uiso       1.00
      H502          H  0.2242616  0.7025056  0.1116870    0.00000       Uiso       1.00
      H503          H  0.1553589  0.7262359  0.1622352    0.00000       Uiso       1.00
      C822          C  0.0266252  0.7732435  0.2253255    0.00000       Uiso       1.00
      C823          C  0.0484301  0.7552504  0.2160587    0.00000       Uiso       1.00
      C824          C  0.0527567  0.7333546  0.2184020    0.00000       Uiso       1.00
      C825          C  0.0746974  0.7155118  0.2097179    0.00000       Uiso       1.00
      C826          C  0.0927564  0.7190306  0.1997704    0.00000       Uiso       1.00
      C827          C  0.0880122  0.7411816  0.1979170    0.00000       Uiso       1.00
      C828          C  0.0663188  0.7594949  0.2042921    0.00000       Uiso       1.00
       O42          O  0.0074196  0.7717323  0.2378852    0.00000       Uiso       1.00
      H504          H  0.0390216  0.7302281  0.2268262    0.00000       Uiso       1.00
      H505          H  0.0772822  0.6990350  0.2110447    0.00000       Uiso       1.00
      H506          H  0.1010498  0.7442023  0.1926637    0.00000       Uiso       1.00
       B19          B  0.9904583  0.7953344  0.2429261    0.00000       Uiso       1.00
       B20          B  0.2147563  0.6156154  0.1531416    0.00000       Uiso       1.00
       B21          B  0.1702863  0.8398563  0.1080104    0.00000       Uiso       1.00
      H507          H  0.0184597  0.8351834  0.2169159    0.00000       Uiso       1.00
      H508          H  0.0488008  0.8431475  0.1944784    0.00000       Uiso       1.00
      H509          H  0.1046446  0.8565388  0.1404809    0.00000       Uiso       1.00
      H510          H  0.0737922  0.8493416  0.1630593    0.00000       Uiso       1.00
      C829          C  0.2125740  0.1178006  0.1914174    0.00000       Uiso       1.00
      C830          C  0.2042975  0.1211565  0.2135980    0.00000       Uiso       1.00
      C831          C  0.1933260  0.1102383  0.2311519    0.00000       Uiso       1.00
      C832          C  0.1842375  0.1146803  0.2532789    0.00000       Uiso       1.00
      C833          C  0.1847024  0.1311625  0.2584004    0.00000       Uiso       1.00
      C834          C  0.1955830  0.1421708  0.2404955    0.00000       Uiso       1.00
      C835          C  0.2068884  0.1362343  0.2181575    0.00000       Uiso       1.00
       O43          O  0.2108071  0.1041633  0.1842488    0.00000       Uiso       1.00
      H511          H  0.1919552  0.0981833  0.2275846    0.00000       Uiso       1.00
      H512          H  0.1767272  0.1052368  0.2662416    0.00000       Uiso       1.00
      H513          H  0.1941525  0.1563627  0.2438723    0.00000       Uiso       1.00
      C836          C  0.2570266  0.2205157  0.2053306    0.00000       Uiso       1.00
      C837          C  0.2536571  0.2066215  0.2004073    0.00000       Uiso       1.00
      C838          C  0.2645626  0.2000472  0.1785195    0.00000       Uiso       1.00
      C839          C  0.2601070  0.1870184  0.1738709    0.00000       Uiso       1.00
      C840          C  0.2436230  0.1814339  0.1908152    0.00000       Uiso       1.00
      C841          C  0.2326273  0.1884501  0.2127026    0.00000       Uiso       1.00
      C842          C  0.2385785  0.1994729  0.2180715    0.00000       Uiso       1.00
       O44          O  0.2706663  0.2294478  0.1899313    0.00000       Uiso       1.00
      H514          H  0.2766183  0.2049844  0.1650969    0.00000       Uiso       1.00
      H515          H  0.2695415  0.1815721  0.1569179    0.00000       Uiso       1.00
      H516          H  0.2184333  0.1865052  0.2254636    0.00000       Uiso       1.00
      C843          C  0.1543249  0.1621563  0.3524523    0.00000       Uiso       1.00
      C844          C  0.1682198  0.1704470  0.3351940    0.00000       Uiso       1.00
      C845          C  0.1748089  0.1814196  0.3395251    0.00000       Uiso       1.00
      C846          C  0.1878377  0.1905217  0.3220466    0.00000       Uiso       1.00
      C847          C  0.1934071  0.1900691  0.2999854    0.00000       Uiso       1.00
      C848          C  0.1863760  0.1791872  0.2960061    0.00000       Uiso       1.00
      C849          C  0.1753537  0.1678694  0.3129724    0.00000       Uiso       1.00
       O45          O  0.1454057  0.1639088  0.3750190    0.00000       Uiso       1.00
      H517          H  0.1698837  0.1827808  0.3565128    0.00000       Uiso       1.00
      H518          H  0.1932960  0.1980328  0.3260336    0.00000       Uiso       1.00
      H519          H  0.1883088  0.1806260  0.2798742    0.00000       Uiso       1.00
      C850          C  0.1474780  0.1517897  0.3482023    0.00000       Uiso       1.00
      C851          C  0.1552051  0.1478674  0.3263960    0.00000       Uiso       1.00
      C852          C  0.1486436  0.1368784  0.3220451    0.00000       Uiso       1.00
      C853          C  0.1574569  0.1321618  0.3001013    0.00000       Uiso       1.00
      C854          C  0.1740716  0.1370940  0.2820908    0.00000       Uiso       1.00
      C855          C  0.1806468  0.1479229  0.2868403    0.00000       Uiso       1.00
      C856          C  0.1702657  0.1549347  0.3085130    0.00000       Uiso       1.00
       O46          O  0.1332882  0.1453315  0.3674446    0.00000       Uiso       1.00
      H520          H  0.1365837  0.1320790  0.3357522    0.00000       Uiso       1.00
      H521          H  0.1512753  0.1244764  0.2974576    0.00000       Uiso       1.00
      H522          H  0.1948512  0.1497474  0.2738204    0.00000       Uiso       1.00
      C857          C  0.2459439  0.2273482  0.2267893    0.00000       Uiso       1.00
      C858          C  0.2318743  0.2196070  0.2447893    0.00000       Uiso       1.00
      C859          C  0.2209766  0.2261541  0.2666857    0.00000       Uiso       1.00
      C860          C  0.2078560  0.2173273  0.2845308    0.00000       Uiso       1.00
      C861          C  0.2064561  0.2007137  0.2809967    0.00000       Uiso       1.00
      C862          C  0.2177662  0.1941530  0.2588482    0.00000       Uiso       1.00
      C863          C  0.2290467  0.2045470  0.2405478    0.00000       Uiso       1.00
       O47          O  0.2509998  0.2415397  0.2281920    0.00000       Uiso       1.00
      H523          H  0.2226280  0.2382132  0.2698351    0.00000       Uiso       1.00
      H524          H  0.1990417  0.2234977  0.3010378    0.00000       Uiso       1.00
      H525          H  0.2189485  0.1799505  0.2558402    0.00000       Uiso       1.00
      C864          C  0.2229393  0.1288957  0.1742116    0.00000       Uiso       1.00
      C865          C  0.2268751  0.1429653  0.1780188    0.00000       Uiso       1.00
      C866          C  0.2378629  0.1538761  0.1604760    0.00000       Uiso       1.00
      C867          C  0.2425932  0.1669967  0.1645748    0.00000       Uiso       1.00
      C868          C  0.2376766  0.1683844  0.1861148    0.00000       Uiso       1.00
      C869          C  0.2268489  0.1570616  0.2035109    0.00000       Uiso       1.00
      C870          C  0.2198227  0.1457797  0.2001412    0.00000       Uiso       1.00
       O48          O  0.2293822  0.1238517  0.1535678    0.00000       Uiso       1.00
      H526          H  0.2426507  0.1522355  0.1436214    0.00000       Uiso       1.00
      H527          H  0.2502767  0.1758211  0.1507147    0.00000       Uiso       1.00
      H528          H  0.2250369  0.1558711  0.2195327    0.00000       Uiso       1.00
       B22          B  0.2215667  0.1081307  0.1601658    0.00000       Uiso       1.00
       B23          B  0.2667145  0.2427603  0.2046596    0.00000       Uiso       1.00
       B24          B  0.1320850  0.1531387  0.3843765    0.00000       Uiso       1.00
