data_31
_audit_creation_date              0000-00-00
_audit_creation_method            'LanYouShi'
_symmetry_space_group_name_H-M    'P1'
_cell_length_a                    84.9225998
_cell_length_b                    73.5671005
_cell_length_c                    73.5671005
_cell_angle_alpha                 70.5409012
_cell_angle_beta                  54.7476997
_cell_angle_gamma                 54.7476997
loop_
_atom_site_label
_atom_site_type_symbol
_atom_site_fract_x
_atom_site_fract_y
_atom_site_fract_z
_atom_site_U_iso_or_equiv
_atom_site_adp_type
_atom_site_occupancy
        C1          C  0.4999997  0.5000002  0.4999999    0.00000       Uiso       1.00
        C2          C  0.3238283  0.6357542  0.5712996    0.00000       Uiso       1.00
        C3          C  0.3317903  0.6126807  0.5759014    0.00000       Uiso       1.00
        C4          C  0.3163527  0.6050821  0.5907807    0.00000       Uiso       1.00
        C5          C  0.2932279  0.6203933  0.6011689    0.00000       Uiso       1.00
        C6          C  0.2852660  0.6435091  0.5967678    0.00000       Uiso       1.00
        C7          C  0.3006983  0.6511024  0.5817671    0.00000       Uiso       1.00
        H1          H  0.2949354  0.6688660  0.5780134    0.00000       Uiso       1.00
        H2          H  0.2816207  0.6141329  0.6126412    0.00000       Uiso       1.00
        C8          C  0.5923075  0.5759017  0.3873195    0.00000       Uiso       1.00
        C9          C  0.6048715  0.5712999  0.3642459    0.00000       Uiso       1.00
       C10          C  0.5928659  0.5907810  0.3949181    0.00000       Uiso       1.00
       C11          C  0.6056024  0.6011692  0.3796068    0.00000       Uiso       1.00
       C12          C  0.6179655  0.5967681  0.3564911    0.00000       Uiso       1.00
       C13          C  0.6175340  0.5817674  0.3488978    0.00000       Uiso       1.00
        H3          H  0.6270506  0.5780137  0.3311341    0.00000       Uiso       1.00
        H4          H  0.6057373  0.6126415  0.3858672    0.00000       Uiso       1.00
       C14          C  0.5203724  0.3873198  0.4240983    0.00000       Uiso       1.00
       C15          C  0.5308821  0.3642462  0.4287001    0.00000       Uiso       1.00
       C16          C  0.5122154  0.3949184  0.4092190    0.00000       Uiso       1.00
       C17          C  0.5147902  0.3796071  0.3988308    0.00000       Uiso       1.00
       C18          C  0.5255429  0.3564914  0.4032319    0.00000       Uiso       1.00
       C19          C  0.5335677  0.3488981  0.4182326    0.00000       Uiso       1.00
        H5          H  0.5418148  0.3311344  0.4219863    0.00000       Uiso       1.00
        H6          H  0.5083948  0.3858675  0.3873586    0.00000       Uiso       1.00
       C20          C  0.5555286  0.4240987  0.6126802    0.00000       Uiso       1.00
       C21          C  0.5404171  0.4287006  0.6357538    0.00000       Uiso       1.00
       C22          C  0.5785649  0.4092195  0.6050817    0.00000       Uiso       1.00
       C23          C  0.5863785  0.3988312  0.6203929    0.00000       Uiso       1.00
       C24          C  0.5712246  0.4032324  0.6435087    0.00000       Uiso       1.00
       C25          C  0.5481991  0.4182331  0.6511019    0.00000       Uiso       1.00
        H7          H  0.5361983  0.4219868  0.6688656    0.00000       Uiso       1.00
        H8          H  0.6042459  0.3873590  0.6141325    0.00000       Uiso       1.00
        N1          N  0.5798721  0.5956928  0.4194470    0.00000       Uiso       1.00
        O1          O  0.5804339  0.6084083  0.4257993    0.00000       Uiso       1.00
        O2          O  0.5688990  0.5869144  0.4327506    0.00000       Uiso       1.00
        N2          N  0.6051159  0.5551504  0.3555745    0.00000       Uiso       1.00
        O3          O  0.6159461  0.5514434  0.3358178    0.00000       Uiso       1.00
        O4          O  0.5944824  0.5459170  0.3683803    0.00000       Uiso       1.00
        N3          N  0.5006801  0.4194473  0.4043072    0.00000       Uiso       1.00
        O5          O  0.4937662  0.4257996  0.3915917    0.00000       Uiso       1.00
        O6          O  0.4983506  0.4327509  0.4130848    0.00000       Uiso       1.00
        N4          N  0.5393091  0.3555748  0.4448495    0.00000       Uiso       1.00
        O7          O  0.5482355  0.3358181  0.4485566    0.00000       Uiso       1.00
        O8          O  0.5371359  0.3683807  0.4540838    0.00000       Uiso       1.00
        N5          N  0.5158407  0.4448500  0.6444252    0.00000       Uiso       1.00
        O9          O  0.5032071  0.4485571  0.6641819    0.00000       Uiso       1.00
       O10          O  0.5087795  0.4540835  0.6316194    0.00000       Uiso       1.00
        N6          N  0.5950119  0.4043076  0.5805527    0.00000       Uiso       1.00
       O11          O  0.6146414  0.3915921  0.5742004    0.00000       Uiso       1.00
       O12          O  0.5885640  0.4130860  0.5672491    0.00000       Uiso       1.00
        N7          N  0.3244345  0.5805531  0.5956925    0.00000       Uiso       1.00
       O13          O  0.3111574  0.5742008  0.6084080    0.00000       Uiso       1.00
       O14          O  0.3441862  0.5672496  0.5869149    0.00000       Uiso       1.00
        N8          N  0.3397332  0.6444256  0.5551502    0.00000       Uiso       1.00
       O15          O  0.3326100  0.6641823  0.5514432    0.00000       Uiso       1.00
       O16          O  0.3596002  0.6316198  0.5459160    0.00000       Uiso       1.00
       C26          C  0.3945237  0.5828713  0.5314138    0.00000       Uiso       1.00
       C27          C  0.4035594  0.5641853  0.5432719    0.00000       Uiso       1.00
       C28          C  0.3892772  0.5612686  0.5657042    0.00000       Uiso       1.00
       C29          C  0.3661404  0.5770345  0.5761501    0.00000       Uiso       1.00
       C30          C  0.3567141  0.5959672  0.5645860    0.00000       Uiso       1.00
       C31          C  0.3713563  0.5985737  0.5420659    0.00000       Uiso       1.00
        H9          H  0.3647267  0.6126201  0.5326102    0.00000       Uiso       1.00
       H10          H  0.3555451  0.5746520  0.5934364    0.00000       Uiso       1.00
       C32          C  0.5531681  0.5432723  0.4358148    0.00000       Uiso       1.00
       C33          C  0.5740618  0.5314141  0.4171289    0.00000       Uiso       1.00
       C34          C  0.5450179  0.5657045  0.4387316    0.00000       Uiso       1.00
       C35          C  0.5577088  0.5761504  0.4229656    0.00000       Uiso       1.00
       C36          C  0.5786992  0.5645862  0.4040330    0.00000       Uiso       1.00
       C37          C  0.5865771  0.5420662  0.4014263    0.00000       Uiso       1.00
       H11          H  0.6026624  0.5326105  0.3873800    0.00000       Uiso       1.00
       H12          H  0.5510179  0.5934367  0.4253482    0.00000       Uiso       1.00
       C38          C  0.5110165  0.4358151  0.4567278    0.00000       Uiso       1.00
       C39          C  0.5088086  0.4171293  0.4685860    0.00000       Uiso       1.00
       C40          C  0.5162501  0.4387318  0.4342955    0.00000       Uiso       1.00
       C41          C  0.5193252  0.4229659  0.4238495    0.00000       Uiso       1.00
       C42          C  0.5172672  0.4040333  0.4354137    0.00000       Uiso       1.00
       C43          C  0.5119958  0.4014268  0.4579338    0.00000       Uiso       1.00
       H13          H  0.5099566  0.3873806  0.4673896    0.00000       Uiso       1.00
       H14          H  0.5236336  0.4253483  0.4065633    0.00000       Uiso       1.00
       C44          C  0.5322549  0.4567282  0.5641849    0.00000       Uiso       1.00
       C45          C  0.5226045  0.4685863  0.5828709    0.00000       Uiso       1.00
       C46          C  0.5494540  0.4342960  0.5612681    0.00000       Uiso       1.00
       C47          C  0.5568248  0.4238501  0.5770340    0.00000       Uiso       1.00
       C48          C  0.5473183  0.4354142  0.5959667    0.00000       Uiso       1.00
       C49          C  0.5300695  0.4579342  0.5985734    0.00000       Uiso       1.00
       H15          H  0.5226527  0.4673899  0.6126198    0.00000       Uiso       1.00
       H16          H  0.5698028  0.4065638  0.5746515    0.00000       Uiso       1.00
       C50          C  0.4089379  0.5853666  0.5089799    0.00000       Uiso       1.00
       C51          C  0.4318704  0.5696978  0.4985103    0.00000       Uiso       1.00
       C52          C  0.3985027  0.5424953  0.5772554    0.00000       Uiso       1.00
       C53          C  0.4214490  0.5269052  0.5667959    0.00000       Uiso       1.00
       C54          C  0.5182537  0.4575050  0.4227441    0.00000       Uiso       1.00
       C55          C  0.5151504  0.4730950  0.4332038    0.00000       Uiso       1.00
       C56          C  0.5590019  0.4227447  0.5424947    0.00000       Uiso       1.00
       C57          C  0.5516456  0.4332043  0.5269046    0.00000       Uiso       1.00
       C58          C  0.5056950  0.4910202  0.5853664    0.00000       Uiso       1.00
       C59          C  0.4984313  0.5014897  0.5696976    0.00000       Uiso       1.00
        N9          N  0.5175308  0.4929197  0.4200209    0.00000       Uiso       1.00
       O17          O  0.5149369  0.5065321  0.4286689    0.00000       Uiso       1.00
       O18          O  0.5220314  0.4951946  0.4008106    0.00000       Uiso       1.00
       N10          N  0.5237869  0.4612307  0.3987525    0.00000       Uiso       1.00
       O19          O  0.5255007  0.4773833  0.3888562    0.00000       Uiso       1.00
       O20          O  0.5265065  0.4480657  0.3894234    0.00000       Uiso       1.00
       N11          N  0.5624483  0.4200216  0.5070798    0.00000       Uiso       1.00
       O21          O  0.5563942  0.4286696  0.4934675    0.00000       Uiso       1.00
       O22          O  0.5771576  0.4008111  0.5048052    0.00000       Uiso       1.00
       N12          N  0.5774605  0.3987533  0.5387688    0.00000       Uiso       1.00
       O23          O  0.5856432  0.3888570  0.5226160    0.00000       Uiso       1.00
       O24          O  0.5840695  0.3894238  0.5519343    0.00000       Uiso       1.00
       N13          N  0.4802186  0.5255845  0.5732015    0.00000       Uiso       1.00
       O25          O  0.4737150  0.5349190  0.5599529    0.00000       Uiso       1.00
       O26          O  0.4721279  0.5355583  0.5892559    0.00000       Uiso       1.00
       N14          N  0.4950294  0.5043010  0.6050564    0.00000       Uiso       1.00
       O27          O  0.4804960  0.5235840  0.6071698    0.00000       Uiso       1.00
       O28          O  0.5010151  0.4956622  0.6187207    0.00000       Uiso       1.00
       N15          N  0.4304712  0.5070804  0.5799786    0.00000       Uiso       1.00
       O29          O  0.4501378  0.4934680  0.5713306    0.00000       Uiso       1.00
       O30          O  0.4180364  0.5048054  0.5991889    0.00000       Uiso       1.00
       N16          N  0.3837699  0.5387694  0.6012470    0.00000       Uiso       1.00
       O31          O  0.3917401  0.5226167  0.6111433    0.00000       Uiso       1.00
       O32          O  0.3639954  0.5519344  0.6105762    0.00000       Uiso       1.00
       N17          N  0.3999133  0.6050565  0.4956991    0.00000       Uiso       1.00
       O33          O  0.4123334  0.6071697  0.4764160    0.00000       Uiso       1.00
       O34          O  0.3802636  0.6187213  0.5043380    0.00000       Uiso       1.00
       N18          N  0.4465792  0.5732016  0.4744156    0.00000       Uiso       1.00
       O35          O  0.4663314  0.5599530  0.4650810    0.00000       Uiso       1.00
       O36          O  0.4386157  0.5892563  0.4644419    0.00000       Uiso       1.00
       C60          C  0.4642856  0.5353920  0.4998159    0.00000       Uiso       1.00
       C61          C  0.4740811  0.5171639  0.5116963    0.00000       Uiso       1.00
       C62          C  0.4590999  0.5141166  0.5339144    0.00000       Uiso       1.00
       C63          C  0.4359003  0.5296603  0.5444942    0.00000       Uiso       1.00
       C64          C  0.4269050  0.5483564  0.5326662    0.00000       Uiso       1.00
       C65          C  0.4411292  0.5511237  0.5101877    0.00000       Uiso       1.00
       H17          H  0.4748246  0.5375181  0.4824131    0.00000       Uiso       1.00
       H18          H  0.4654989  0.4995925  0.5431315    0.00000       Uiso       1.00
       C66          C  0.5142220  0.5116966  0.4828362    0.00000       Uiso       1.00
       C67          C  0.5358978  0.4998163  0.4646081    0.00000       Uiso       1.00
       C68          C  0.5069849  0.5339148  0.4858835    0.00000       Uiso       1.00
       C69          C  0.5196048  0.5444945  0.4703398    0.00000       Uiso       1.00
       C70          C  0.5404280  0.5326666  0.4516437    0.00000       Uiso       1.00
       C71          C  0.5486825  0.5101880  0.4488764    0.00000       Uiso       1.00
       H19          H  0.5427617  0.4824134  0.4624820    0.00000       Uiso       1.00
       H20          H  0.4913689  0.5431319  0.5004076    0.00000       Uiso       1.00
       C72          C  0.5029413  0.4828365  0.4883034    0.00000       Uiso       1.00
       C73          C  0.4994934  0.4646085  0.5001838    0.00000       Uiso       1.00
       C74          C  0.5071310  0.4858837  0.4660853    0.00000       Uiso       1.00
       C75          C  0.5100549  0.4703400  0.4555055    0.00000       Uiso       1.00
       C76          C  0.5079277  0.4516441  0.4673335    0.00000       Uiso       1.00
       C77          C  0.5024404  0.4488768  0.4898120    0.00000       Uiso       1.00
       H21          H  0.4947555  0.4624825  0.5175867    0.00000       Uiso       1.00
       H22          H  0.5082231  0.5004078  0.4568681    0.00000       Uiso       1.00
       C78          C  0.5087546  0.4883038  0.5171636    0.00000       Uiso       1.00
       C79          C  0.5003220  0.5001842  0.5353917    0.00000       Uiso       1.00
       C80          C  0.5267832  0.4660857  0.5141162    0.00000       Uiso       1.00
       C81          C  0.5344391  0.4555060  0.5296599    0.00000       Uiso       1.00
       C82          C  0.5247383  0.4673339  0.5483560    0.00000       Uiso       1.00
       C83          C  0.5077466  0.4898124  0.5511234    0.00000       Uiso       1.00
       H23          H  0.4876568  0.5175871  0.5375179    0.00000       Uiso       1.00
       H24          H  0.5349083  0.4568686  0.4995921    0.00000       Uiso       1.00
       C84          C  0.5696186  0.4985107  0.4303023    0.00000       Uiso       1.00
       C85          C  0.5820817  0.5089802  0.4146335    0.00000       Uiso       1.00
       C86          C  0.5117544  0.5667962  0.4730950    0.00000       Uiso       1.00
       C87          C  0.5242411  0.5772558  0.4575050    0.00000       Uiso       1.00
       C88          C  0.5000781  0.4303028  0.5014895    0.00000       Uiso       1.00
       C89          C  0.5032839  0.4146340  0.4910200    0.00000       Uiso       1.00
       N19          N  0.4895494  0.5799790  0.4929197    0.00000       Uiso       1.00
       O37          O  0.4828309  0.5991537  0.4952562    0.00000       Uiso       1.00
       O38          O  0.4784744  0.5713699  0.5064692    0.00000       Uiso       1.00
       N20          N  0.5149824  0.6012473  0.4612308    0.00000       Uiso       1.00
       O39          O  0.4971159  0.6111436  0.4773836    0.00000       Uiso       1.00
       O40          O  0.5254273  0.6105768  0.4480653    0.00000       Uiso       1.00
       N21          N  0.5790046  0.4744159  0.4267985    0.00000       Uiso       1.00
       O41          O  0.5970078  0.4644025  0.4108193    0.00000       Uiso       1.00
       O42          O  0.5685245  0.4651211  0.4399678    0.00000       Uiso       1.00
       N22          N  0.6043869  0.4956994  0.3949435    0.00000       Uiso       1.00
       O43          O  0.6112499  0.4764163  0.3928302    0.00000       Uiso       1.00
       O44          O  0.6153981  0.5043381  0.3812792    0.00000       Uiso       1.00
       N23          N  0.4941958  0.4267992  0.5255843    0.00000       Uiso       1.00
       O45          O  0.4921715  0.4108201  0.5355977    0.00000       Uiso       1.00
       O46          O  0.4915056  0.4399690  0.5348794    0.00000       Uiso       1.00
       N24          N  0.5006683  0.3949442  0.5043008    0.00000       Uiso       1.00
       O47          O  0.4959185  0.3928310  0.5235839    0.00000       Uiso       1.00
       O48          O  0.5033224  0.3812794  0.4956618    0.00000       Uiso       1.00
       C90          C  0.8748316  0.6251124  0.8749998    0.00000       Uiso       1.00
       C91          C  0.7389669  0.7300158  0.8347081    0.00000       Uiso       1.00
       C92          C  0.7620421  0.7174540  0.8195873    0.00000       Uiso       1.00
       C93          C  0.7696272  0.7180189  0.7965584    0.00000       Uiso       1.00
       C94          C  0.7543010  0.7307602  0.7887608    0.00000       Uiso       1.00
       C95          C  0.7311835  0.7431212  0.8039238    0.00000       Uiso       1.00
       C96          C  0.7236038  0.7426830  0.8269422    0.00000       Uiso       1.00
       H25          H  0.7058393  0.7521979  0.8389498    0.00000       Uiso       1.00
       H26          H  0.7605510  0.7309002  0.7708985    0.00000       Uiso       1.00
       C97          C  0.7990221  0.6454338  0.0431773    0.00000       Uiso       1.00
       C98          C  0.8036400  0.6559332  0.0511384    0.00000       Uiso       1.00
       C99          C  0.7841398  0.6372803  0.0586110    0.00000       Uiso       1.00
      C100          C  0.7737640  0.6398482  0.0817312    0.00000       Uiso       1.00
      C101          C  0.7781810  0.6505906  0.0896924    0.00000       Uiso       1.00
      C102          C  0.7931849  0.6586121  0.0742639    0.00000       Uiso       1.00
       H27          H  0.7969508  0.6668512  0.0800263    0.00000       Uiso       1.00
       H28          H  0.7622891  0.6334557  0.0933354    0.00000       Uiso       1.00
      C103          C  0.9875552  0.6806073  0.7827078    0.00000       Uiso       1.00
      C104          C  0.0106315  0.6654978  0.7701324    0.00000       Uiso       1.00
      C105          C  0.9799596  0.7036368  0.7821633    0.00000       Uiso       1.00
      C106          C  0.9952767  0.7114457  0.7694291    0.00000       Uiso       1.00
      C107          C  0.0183954  0.6962939  0.7570544    0.00000       Uiso       1.00
      C108          C  0.0259856  0.6732750  0.7574722    0.00000       Uiso       1.00
       H29          H  0.0437512  0.6612759  0.7479465    0.00000       Uiso       1.00
       H30          H  0.9890186  0.7293081  0.7693051    0.00000       Uiso       1.00
      C109          C  0.9507077  0.4569535  0.8545271    0.00000       Uiso       1.00
      C110          C  0.9460888  0.4490017  0.8440206    0.00000       Uiso       1.00
      C111          C  0.9656007  0.4415125  0.8626668    0.00000       Uiso       1.00
      C112          C  0.9759855  0.4183945  0.8600782    0.00000       Uiso       1.00
      C113          C  0.9715673  0.4104429  0.8493288    0.00000       Uiso       1.00
      C114          C  0.9565529  0.4258786  0.8413211    0.00000       Uiso       1.00
       H31          H  0.9527858  0.4201236  0.8330768    0.00000       Uiso       1.00
       H32          H  0.9874685  0.4067846  0.8664604    0.00000       Uiso       1.00
       N25          N  0.7792112  0.6257561  0.0505297    0.00000       Uiso       1.00
       O49          O  0.7664930  0.6188449  0.0638036    0.00000       Uiso       1.00
       O50          O  0.7879786  0.6234316  0.0307821    0.00000       Uiso       1.00
       N26          N  0.8197933  0.6643564  0.0352371    0.00000       Uiso       1.00
       O51          O  0.8235140  0.6732740  0.0423594    0.00000       Uiso       1.00
       O52          O  0.8290163  0.6621898  0.0153738    0.00000       Uiso       1.00
       N27          N  0.9554277  0.7200817  0.7951696    0.00000       Uiso       1.00
       O53          O  0.9490780  0.7397055  0.7946198    0.00000       Uiso       1.00
       O54          O  0.9421192  0.7136376  0.8061417    0.00000       Uiso       1.00
       N28          N  0.0192995  0.6409286  0.7698732    0.00000       Uiso       1.00
       O55          O  0.0390586  0.6282968  0.7590333    0.00000       Uiso       1.00
       O56          O  0.0064885  0.6338717  0.7805037    0.00000       Uiso       1.00
       N29          N  0.9299245  0.4649106  0.8356116    0.00000       Uiso       1.00
       O57          O  0.9262029  0.4577962  0.8266877    0.00000       Uiso       1.00
       O58          O  0.9206936  0.4847718  0.8377960    0.00000       Uiso       1.00
       N30          N  0.9705308  0.4495834  0.8741983    0.00000       Uiso       1.00
       O59          O  0.9832579  0.4363034  0.8810976    0.00000       Uiso       1.00
       O60          O  0.9617555  0.4693290  0.8765404    0.00000       Uiso       1.00
       N31          N  0.7941576  0.7050274  0.7801018    0.00000       Uiso       1.00
       O61          O  0.8004982  0.7055948  0.7604785    0.00000       Uiso       1.00
       O62          O  0.8074738  0.6940496  0.7865362    0.00000       Uiso       1.00
       N32          N  0.7303100  0.7302530  0.8592775    0.00000       Uiso       1.00
       O63          O  0.7105517  0.7410816  0.8719190    0.00000       Uiso       1.00
       O64          O  0.7431288  0.7196162  0.8663249    0.00000       Uiso       1.00
      C115          C  0.7918993  0.6991884  0.8524752    0.00000       Uiso       1.00
      C116          C  0.8105841  0.6782999  0.8428114    0.00000       Uiso       1.00
      C117          C  0.8134844  0.6701598  0.8256152    0.00000       Uiso       1.00
      C118          C  0.7977034  0.6828553  0.8182605    0.00000       Uiso       1.00
      C119          C  0.7787719  0.7038406  0.8277804    0.00000       Uiso       1.00
      C120          C  0.7761819  0.7117084  0.8450262    0.00000       Uiso       1.00
       H33          H  0.7621368  0.7277896  0.8524530    0.00000       Uiso       1.00
       H34          H  0.8000735  0.6761721  0.8052843    0.00000       Uiso       1.00
      C121          C  0.8316121  0.6361005  0.9714213    0.00000       Uiso       1.00
      C122          C  0.8434880  0.6338844  0.9804465    0.00000       Uiso       1.00
      C123          C  0.8091750  0.6413351  0.9857093    0.00000       Uiso       1.00
      C124          C  0.7987421  0.6444024  0.0088422    0.00000       Uiso       1.00
      C125          C  0.8103241  0.6423361  0.0182582    0.00000       Uiso       1.00
      C126          C  0.8328488  0.6370637  0.0036101    0.00000       Uiso       1.00
       H35          H  0.8423180  0.6350185  0.0102316    0.00000       Uiso       1.00
       H36          H  0.7814518  0.6487118  0.0194425    0.00000       Uiso       1.00
      C127          C  0.9390411  0.6573483  0.8218410    0.00000       Uiso       1.00
      C128          C  0.9577206  0.6477033  0.8009439    0.00000       Uiso       1.00
      C129          C  0.9361368  0.6745370  0.8299966    0.00000       Uiso       1.00
      C130          C  0.9519088  0.6819031  0.8173077    0.00000       Uiso       1.00
      C131          C  0.9708352  0.6724020  0.7963138    0.00000       Uiso       1.00
      C132          C  0.9734294  0.6551635  0.7884305    0.00000       Uiso       1.00
       H37          H  0.9874704  0.6477511  0.7723426    0.00000       Uiso       1.00
       H38          H  0.9495359  0.6948732  0.8240024    0.00000       Uiso       1.00
      C133          C  0.9180894  0.5287008  0.8639254    0.00000       Uiso       1.00
      C134          C  0.9062186  0.5196736  0.8661333    0.00000       Uiso       1.00
      C135          C  0.9405307  0.5144173  0.8586780    0.00000       Uiso       1.00
      C136          C  0.9509729  0.4912876  0.8555893    0.00000       Uiso       1.00
      C137          C  0.9393961  0.4818698  0.8576471    0.00000       Uiso       1.00
      C138          C  0.9168671  0.4965131  0.8629324    0.00000       Uiso       1.00
       H39          H  0.9074019  0.4898898  0.8649718    0.00000       Uiso       1.00
       H40          H  0.9682660  0.4806912  0.8512705    0.00000       Uiso       1.00
      C139          C  0.7894205  0.7071982  0.8693817    0.00000       Uiso       1.00
      C140          C  0.8051042  0.6947305  0.8766296    0.00000       Uiso       1.00
      C141          C  0.8322568  0.6493882  0.8160540    0.00000       Uiso       1.00
      C142          C  0.8478616  0.6368969  0.8233944    0.00000       Uiso       1.00
      C143          C  0.9173696  0.6840795  0.8507768    0.00000       Uiso       1.00
      C144          C  0.9017735  0.6767280  0.8632616    0.00000       Uiso       1.00
      C145          C  0.9520947  0.5236344  0.8566746    0.00000       Uiso       1.00
      C146          C  0.9416386  0.5465738  0.8597915    0.00000       Uiso       1.00
      C147          C  0.8837761  0.5340887  0.8716717    0.00000       Uiso       1.00
      C148          C  0.8733103  0.5570142  0.8748910    0.00000       Uiso       1.00
       N33          N  0.8819559  0.6875245  0.8854704    0.00000       Uiso       1.00
       O65          O  0.8683383  0.6814742  0.8964874    0.00000       Uiso       1.00
       O66          O  0.8796914  0.7022257  0.8922504    0.00000       Uiso       1.00
       N34          N  0.9136571  0.7025272  0.8600414    0.00000       Uiso       1.00
       O67          O  0.8975096  0.7107053  0.8779109    0.00000       Uiso       1.00
       O68          O  0.9268274  0.7091327  0.8495978    0.00000       Uiso       1.00
       N35          N  0.9548351  0.5555870  0.8574106    0.00000       Uiso       1.00
       O69          O  0.9461905  0.5752475  0.8600159    0.00000       Uiso       1.00
       O70          O  0.9740531  0.5431513  0.8528972    0.00000       Uiso       1.00
       N36          N  0.9760959  0.5089000  0.8511269    0.00000       Uiso       1.00
       O71          O  0.9860031  0.5168629  0.8494132    0.00000       Uiso       1.00
       O72          O  0.9854226  0.4891314  0.8483946    0.00000       Uiso       1.00
       N37          N  0.8492058  0.5717247  0.8807877    0.00000       Uiso       1.00
       O73          O  0.8398743  0.5914709  0.8836305    0.00000       Uiso       1.00
       O74          O  0.8392211  0.5637681  0.8826709    0.00000       Uiso       1.00
       N38          N  0.8704818  0.5250731  0.8742876    0.00000       Uiso       1.00
       O75          O  0.8511913  0.5374941  0.8790493    0.00000       Uiso       1.00
       O76          O  0.8791171  0.5054293  0.8716230    0.00000       Uiso       1.00
       N39          N  0.8676846  0.6146978  0.8125778    0.00000       Uiso       1.00
       O77          O  0.8813097  0.6036754  0.8186182    0.00000       Uiso       1.00
       O78          O  0.8699455  0.6079310  0.7978705    0.00000       Uiso       1.00
       N40          N  0.8359653  0.6401401  0.7975979    0.00000       Uiso       1.00
       O79          O  0.8521171  0.6222781  0.7894038    0.00000       Uiso       1.00
       O80          O  0.8227872  0.6505897  0.7910018    0.00000       Uiso       1.00
       N41          N  0.7697325  0.7294976  0.8800612    0.00000       Uiso       1.00
       O81          O  0.7676335  0.7363520  0.8945920    0.00000       Uiso       1.00
       O82          O  0.7560551  0.7405122  0.8740900    0.00000       Uiso       1.00
       N42          N  0.8016179  0.7041058  0.8948398    0.00000       Uiso       1.00
       O83          O  0.8148794  0.6936839  0.9013298    0.00000       Uiso       1.00
       O84          O  0.7855640  0.7220384  0.9029427    0.00000       Uiso       1.00
      C149          C  0.8394240  0.6610103  0.8747095    0.00000       Uiso       1.00
      C150          C  0.8576511  0.6393398  0.8662629    0.00000       Uiso       1.00
      C151          C  0.8606818  0.6321127  0.8482377    0.00000       Uiso       1.00
      C152          C  0.8451231  0.6447373  0.8405979    0.00000       Uiso       1.00
      C153          C  0.8264282  0.6655552  0.8503120    0.00000       Uiso       1.00
      C154          C  0.8236772  0.6737996  0.8673009    0.00000       Uiso       1.00
       H41          H  0.8373103  0.6678663  0.8873731    0.00000       Uiso       1.00
       H42          H  0.8752047  0.6165009  0.8401027    0.00000       Uiso       1.00
      C155          C  0.8631493  0.6280462  0.9009133    0.00000       Uiso       1.00
      C156          C  0.8750476  0.6245903  0.9106976    0.00000       Uiso       1.00
      C157          C  0.8409265  0.6322372  0.9158996    0.00000       Uiso       1.00
      C158          C  0.8303593  0.6351541  0.9390949    0.00000       Uiso       1.00
      C159          C  0.8422049  0.6330186  0.9480799    0.00000       Uiso       1.00
      C160          C  0.8646885  0.6275303  0.9338496    0.00000       Uiso       1.00
       H43          H  0.8924544  0.6198516  0.9001533    0.00000       Uiso       1.00
       H44          H  0.8316959  0.6333358  0.9095082    0.00000       Uiso       1.00
      C161          C  0.8920020  0.6338620  0.8607802    0.00000       Uiso       1.00
      C162          C  0.9102231  0.6254348  0.8391021    0.00000       Uiso       1.00
      C163          C  0.8889665  0.6518804  0.8680234    0.00000       Uiso       1.00
      C164          C  0.9045162  0.6595317  0.8554056    0.00000       Uiso       1.00
      C165          C  0.9232060  0.6498362  0.8345790    0.00000       Uiso       1.00
      C166          C  0.9259608  0.6328549  0.8263193    0.00000       Uiso       1.00
       H45          H  0.9123392  0.6127775  0.8322346    0.00000       Uiso       1.00
       H46          H  0.8744470  0.6600014  0.8836427    0.00000       Uiso       1.00
      C167          C  0.8865244  0.5992014  0.8720427    0.00000       Uiso       1.00
      C168          C  0.8746321  0.5894141  0.8754898    0.00000       Uiso       1.00
      C169          C  0.9087519  0.5842189  0.8678384    0.00000       Uiso       1.00
      C170          C  0.9193282  0.5610262  0.8649008    0.00000       Uiso       1.00
      C171          C  0.9074874  0.5520394  0.8670281    0.00000       Uiso       1.00
      C172          C  0.8850002  0.5662647  0.8725290    0.00000       Uiso       1.00
       H47          H  0.8572225  0.5999541  0.8802378    0.00000       Uiso       1.00
       H48          H  0.9179792  0.5906113  0.8667456    0.00000       Uiso       1.00
      C173          C  0.8763835  0.6251600  0.9430981    0.00000       Uiso       1.00
      C174          C  0.8659266  0.6283588  0.9660264    0.00000       Uiso       1.00
      C175          C  0.8080530  0.6402506  0.9535519    0.00000       Uiso       1.00
      C176          C  0.7976059  0.6433470  0.9764940    0.00000       Uiso       1.00
      C177          C  0.9445286  0.6235450  0.8053800    0.00000       Uiso       1.00
      C178          C  0.9602035  0.6308040  0.7929188    0.00000       Uiso       1.00
       N43          N  0.7948514  0.6426397  0.9445408    0.00000       Uiso       1.00
       O85          O  0.7756726  0.6470227  0.9570020    0.00000       Uiso       1.00
       O86          O  0.8034494  0.6401712  0.9248606    0.00000       Uiso       1.00
       N44          N  0.7736086  0.6488816  0.9912334    0.00000       Uiso       1.00
       O87          O  0.7636970  0.6506025  0.9832720    0.00000       Uiso       1.00
       O88          O  0.7642900  0.6515954  0.0110048    0.00000       Uiso       1.00
       N45          N  0.9004841  0.6192762  0.9283823    0.00000       Uiso       1.00
       O89          O  0.9105126  0.6172451  0.9363631    0.00000       Uiso       1.00
       O90          O  0.9097682  0.6165929  0.9086109    0.00000       Uiso       1.00
       N46          N  0.8792261  0.6257347  0.9750397    0.00000       Uiso       1.00
       O91          O  0.8985133  0.6209841  0.9626144    0.00000       Uiso       1.00
       O92          O  0.8705984  0.6283818  0.9946858    0.00000       Uiso       1.00
       N47          N  0.9480188  0.6053433  0.7959884    0.00000       Uiso       1.00
       O93          O  0.9639924  0.5973585  0.7779826    0.00000       Uiso       1.00
       O94          O  0.9348435  0.5987425  0.8064665    0.00000       Uiso       1.00
       N48          N  0.9798861  0.6201447  0.7706099    0.00000       Uiso       1.00
       O95          O  0.9819887  0.6056200  0.7637424    0.00000       Uiso       1.00
       O96          O  0.9935560  0.6261258  0.7596006    0.00000       Uiso       1.00
      C179          C  0.7501676  0.8750001  0.3748881    0.00000       Uiso       1.00
      C180          C  0.6452213  0.0511386  0.3440665    0.00000       Uiso       1.00
      C181          C  0.6578003  0.0431775  0.3545658    0.00000       Uiso       1.00
      C182          C  0.6572489  0.0586113  0.3627194    0.00000       Uiso       1.00
      C183          C  0.6445044  0.0817315  0.3601515    0.00000       Uiso       1.00
      C184          C  0.6321262  0.0896927  0.3494091    0.00000       Uiso       1.00
      C185          C  0.6325507  0.0742642  0.3413877    0.00000       Uiso       1.00
       H49          H  0.6230226  0.0800265  0.3331485    0.00000       Uiso       1.00
       H50          H  0.6443751  0.0933357  0.3665440    0.00000       Uiso       1.00
      C186          C  0.7297362  0.7827079  0.3193930    0.00000       Uiso       1.00
      C187          C  0.7192354  0.7701326  0.3345025    0.00000       Uiso       1.00
      C188          C  0.7378761  0.7821635  0.2963635    0.00000       Uiso       1.00
      C189          C  0.7352933  0.7694293  0.2885546    0.00000       Uiso       1.00
      C190          C  0.7245494  0.7570547  0.3037065    0.00000       Uiso       1.00
      C191          C  0.7165415  0.7574724  0.3267253    0.00000       Uiso       1.00
       H51          H  0.7083014  0.7479468  0.3387244    0.00000       Uiso       1.00
       H52          H  0.7416756  0.7693052  0.2706922    0.00000       Uiso       1.00
      C192          C  0.6947643  0.8545275  0.5430469    0.00000       Uiso       1.00
      C193          C  0.7098897  0.8440210  0.5509986    0.00000       Uiso       1.00
      C194          C  0.6717315  0.8626672  0.5584879    0.00000       Uiso       1.00
      C195          C  0.6639351  0.8600788  0.5816059    0.00000       Uiso       1.00
      C196          C  0.6791029  0.8493292  0.5895575    0.00000       Uiso       1.00
      C197          C  0.7021250  0.8413215  0.5741218    0.00000       Uiso       1.00
       H53          H  0.7141363  0.8330773  0.5798767    0.00000       Uiso       1.00
       H54          H  0.6460700  0.8664609  0.5932158    0.00000       Uiso       1.00
      C198          C  0.9183695  0.8195876  0.2825464    0.00000       Uiso       1.00
      C199          C  0.9263240  0.8347083  0.2699845    0.00000       Uiso       1.00
      C200          C  0.9338136  0.7965586  0.2819814    0.00000       Uiso       1.00
      C201          C  0.9569374  0.7887610  0.2692402    0.00000       Uiso       1.00
      C202          C  0.9648918  0.8039239  0.2568791    0.00000       Uiso       1.00
      C203          C  0.9494531  0.8269424  0.2573174    0.00000       Uiso       1.00
       H55          H  0.9552100  0.8389500  0.2478025    0.00000       Uiso       1.00
       H56          H  0.9685495  0.7708988  0.2691002    0.00000       Uiso       1.00
       N49          N  0.7494017  0.7951698  0.2799186    0.00000       Uiso       1.00
       O97          O  0.7563013  0.7946199  0.2602949    0.00000       Uiso       1.00
       O98          O  0.7517390  0.8061411  0.2863627    0.00000       Uiso       1.00
       N50          N  0.7108265  0.7698735  0.3590717    0.00000       Uiso       1.00
       O99          O  0.7019073  0.7590336  0.3717035    0.00000       Uiso       1.00
      O100          O  0.7130061  0.7805048  0.3661288    0.00000       Uiso       1.00
       N51          N  0.6552699  0.8741987  0.5504170    0.00000       Uiso       1.00
      O101          O  0.6356435  0.8810980  0.5636970    0.00000       Uiso       1.00
      O102          O  0.6617031  0.8765400  0.5306714    0.00000       Uiso       1.00
       N52          N  0.7344628  0.8356121  0.5350898    0.00000       Uiso       1.00
      O103          O  0.7471083  0.8266881  0.5422041    0.00000       Uiso       1.00
      O104          O  0.7415093  0.8377973  0.5152286    0.00000       Uiso       1.00
       N53          N  0.9104117  0.8592777  0.2697474    0.00000       Uiso       1.00
      O105          O  0.9175285  0.8719192  0.2589188    0.00000       Uiso       1.00
      O106          O  0.8905452  0.8663253  0.2803850    0.00000       Uiso       1.00
       N54          N  0.9257398  0.7801021  0.2949729    0.00000       Uiso       1.00
      O107          O  0.9390224  0.7604787  0.2944055    0.00000       Uiso       1.00
      O108          O  0.9059892  0.7865362  0.3059500    0.00000       Uiso       1.00
       N55          N  0.6702588  0.0505300  0.3742436    0.00000       Uiso       1.00
      O109          O  0.6697030  0.0638039  0.3811548    0.00000       Uiso       1.00
      O110          O  0.6812397  0.0307823  0.3765673    0.00000       Uiso       1.00
       N56          N  0.6449693  0.0352373  0.3356434    0.00000       Uiso       1.00
      O111          O  0.6341262  0.0423597  0.3267257    0.00000       Uiso       1.00
      O112          O  0.6556087  0.0153741  0.3378108    0.00000       Uiso       1.00
      C204          C  0.6760646  0.9804467  0.3661161    0.00000       Uiso       1.00
      C205          C  0.6969656  0.9714215  0.3639000    0.00000       Uiso       1.00
      C206          C  0.7051147  0.9857096  0.3586653    0.00000       Uiso       1.00
      C207          C  0.6924155  0.0088424  0.3555972    0.00000       Uiso       1.00
      C208          C  0.6714174  0.0182584  0.3576635    0.00000       Uiso       1.00
      C209          C  0.6635408  0.0036104  0.3629359    0.00000       Uiso       1.00
       H57          H  0.6474500  0.0102319  0.3649813    0.00000       Uiso       1.00
       H58          H  0.6991054  0.0194427  0.3512878    0.00000       Uiso       1.00
      C210          C  0.7391171  0.8218412  0.3426521    0.00000       Uiso       1.00
      C211          C  0.7413344  0.8009443  0.3522972    0.00000       Uiso       1.00
      C212          C  0.7338660  0.8299967  0.3254632    0.00000       Uiso       1.00
      C213          C  0.7307829  0.8173078  0.3180971    0.00000       Uiso       1.00
      C214          C  0.7328501  0.7963140  0.3275983    0.00000       Uiso       1.00
      C215          C  0.7381390  0.7884308  0.3448370    0.00000       Uiso       1.00
       H59          H  0.7401856  0.7723431  0.3522495    0.00000       Uiso       1.00
       H60          H  0.7264610  0.8240024  0.3051269    0.00000       Uiso       1.00
      C216          C  0.7179841  0.8639258  0.4712997    0.00000       Uiso       1.00
      C217          C  0.7276468  0.8661340  0.4803269    0.00000       Uiso       1.00
      C218          C  0.7007904  0.8586782  0.4855830    0.00000       Uiso       1.00
      C219          C  0.6934370  0.8555894  0.5087128    0.00000       Uiso       1.00
      C220          C  0.7029559  0.8576475  0.5181306    0.00000       Uiso       1.00
      C221          C  0.7201992  0.8629331  0.5034873    0.00000       Uiso       1.00
       H61          H  0.7276250  0.8649727  0.5101107    0.00000       Uiso       1.00
       H62          H  0.6804628  0.8512704  0.5193092    0.00000       Uiso       1.00
      C222          C  0.8466035  0.8428117  0.3217005    0.00000       Uiso       1.00
      C223          C  0.8556244  0.8524755  0.3008121    0.00000       Uiso       1.00
      C224          C  0.8608993  0.8256155  0.3298405    0.00000       Uiso       1.00
      C225          C  0.8840351  0.8182607  0.3171450    0.00000       Uiso       1.00
      C226          C  0.8934469  0.8277806  0.2961597    0.00000       Uiso       1.00
      C227          C  0.8787910  0.8450265  0.2882921    0.00000       Uiso       1.00
       H63          H  0.8854093  0.8524534  0.2722109    0.00000       Uiso       1.00
       H64          H  0.8946412  0.8052844  0.3238281    0.00000       Uiso       1.00
      C228          C  0.6680460  0.9660267  0.3716418    0.00000       Uiso       1.00
      C229          C  0.6805174  0.9430983  0.3748405    0.00000       Uiso       1.00
      C230          C  0.7258990  0.9764943  0.3566535    0.00000       Uiso       1.00
      C231          C  0.7383941  0.9535522  0.3597499    0.00000       Uiso       1.00
      C232          C  0.6912302  0.8566744  0.4763659    0.00000       Uiso       1.00
      C233          C  0.6985692  0.8597912  0.4534266    0.00000       Uiso       1.00
      C234          C  0.8516883  0.8160541  0.3506121    0.00000       Uiso       1.00
      C235          C  0.8287429  0.8233946  0.3631034    0.00000       Uiso       1.00
      C236          C  0.8411967  0.8693821  0.2928023    0.00000       Uiso       1.00
      C237          C  0.8182651  0.8766300  0.3052700    0.00000       Uiso       1.00
       N57          N  0.6877539  0.8574100  0.4444133    0.00000       Uiso       1.00
      O113          O  0.6937931  0.8600153  0.4247528    0.00000       Uiso       1.00
      O114          O  0.6730487  0.8528973  0.4568491    0.00000       Uiso       1.00
       N58          N  0.6727767  0.8511264  0.4911003    0.00000       Uiso       1.00
      O115          O  0.6645834  0.8494124  0.4831373    0.00000       Uiso       1.00
      O116          O  0.6661819  0.8483950  0.5108690    0.00000       Uiso       1.00
       N59          N  0.8197366  0.8125779  0.3853024    0.00000       Uiso       1.00
      O117          O  0.8000711  0.8186184  0.3963248    0.00000       Uiso       1.00
      O118          O  0.8321829  0.7978712  0.3920696    0.00000       Uiso       1.00
       N60          N  0.8664359  0.7975979  0.3598601    0.00000       Uiso       1.00
      O119          O  0.8584782  0.7894037  0.3777220    0.00000       Uiso       1.00
      O120          O  0.8862098  0.7910026  0.3494109    0.00000       Uiso       1.00
       N61          N  0.8035413  0.8948404  0.2958949    0.00000       Uiso       1.00
      O121          O  0.7837896  0.9013304  0.3063167    0.00000       Uiso       1.00
      O122          O  0.8114924  0.9029427  0.2779618    0.00000       Uiso       1.00
       N62          N  0.8502052  0.8800617  0.2705031    0.00000       Uiso       1.00
      O123          O  0.8377735  0.8945926  0.2636487    0.00000       Uiso       1.00
      O124          O  0.8698541  0.8740898  0.2594880    0.00000       Uiso       1.00
       N63          N  0.7606068  0.9445411  0.3573608    0.00000       Uiso       1.00
      O125          O  0.7716326  0.9248783  0.3599486    0.00000       Uiso       1.00
      O126          O  0.7673813  0.9569809  0.3528594    0.00000       Uiso       1.00
       N64          N  0.7351570  0.9912336  0.3511189    0.00000       Uiso       1.00
      O127          O  0.7530299  0.9832723  0.3493979    0.00000       Uiso       1.00
      O128          O  0.7247044  0.0110052  0.3484052    0.00000       Uiso       1.00
       N65          N  0.6457330  0.9750400  0.3742659    0.00000       Uiso       1.00
      O129          O  0.6388713  0.9626147  0.3790166    0.00000       Uiso       1.00
      O130          O  0.6347150  0.9946860  0.3716180    0.00000       Uiso       1.00
       N66          N  0.6711325  0.9283827  0.3807243    0.00000       Uiso       1.00
      O131          O  0.6815574  0.9086339  0.3835493    0.00000       Uiso       1.00
      O132          O  0.6531890  0.9363373  0.3826138    0.00000       Uiso       1.00
      C238          C  0.7142540  0.9106978  0.3754101    0.00000       Uiso       1.00
      C239          C  0.7359363  0.9009136  0.3719542    0.00000       Uiso       1.00
      C240          C  0.7431728  0.9158999  0.3677633    0.00000       Uiso       1.00
      C241          C  0.7305447  0.9390951  0.3648463    0.00000       Uiso       1.00
      C242          C  0.7097141  0.9480801  0.3669819    0.00000       Uiso       1.00
      C243          C  0.7014609  0.9338499  0.3724701    0.00000       Uiso       1.00
       H65          H  0.7073913  0.9001536  0.3801487    0.00000       Uiso       1.00
       H66          H  0.7587949  0.9095085  0.3666648    0.00000       Uiso       1.00
      C244          C  0.7472169  0.8607805  0.3661384    0.00000       Uiso       1.00
      C245          C  0.7506738  0.8391024  0.3745656    0.00000       Uiso       1.00
      C246          C  0.7430093  0.8680236  0.3481198    0.00000       Uiso       1.00
      C247          C  0.7400773  0.8554058  0.3404686    0.00000       Uiso       1.00
      C248          C  0.7422141  0.8345792  0.3501641    0.00000       Uiso       1.00
      C249          C  0.7477188  0.8263198  0.3671455    0.00000       Uiso       1.00
       H67          H  0.7554250  0.8322350  0.3872229    0.00000       Uiso       1.00
       H68          H  0.7419095  0.8836428  0.3399988    0.00000       Uiso       1.00
      C250          C  0.7414319  0.8720431  0.4007989    0.00000       Uiso       1.00
      C251          C  0.7498770  0.8754903  0.4105863    0.00000       Uiso       1.00
      C252          C  0.7234088  0.8678385  0.4157815    0.00000       Uiso       1.00
      C253          C  0.7157703  0.8649008  0.4389741    0.00000       Uiso       1.00
      C254          C  0.7254834  0.8670285  0.4479611    0.00000       Uiso       1.00
      C255          C  0.7424696  0.8725297  0.4337357    0.00000       Uiso       1.00
       H69          H  0.7625383  0.8802385  0.4000463    0.00000       Uiso       1.00
       H70          H  0.7152745  0.8667456  0.4093890    0.00000       Uiso       1.00
      C256          C  0.7760851  0.8662631  0.3606607    0.00000       Uiso       1.00
      C257          C  0.7858655  0.8747098  0.3389902    0.00000       Uiso       1.00
      C258          C  0.7910794  0.8482381  0.3678876    0.00000       Uiso       1.00
      C259          C  0.8142781  0.8405981  0.3552631    0.00000       Uiso       1.00
      C260          C  0.8232588  0.8503123  0.3344452    0.00000       Uiso       1.00
      C261          C  0.8090208  0.8673012  0.3262009    0.00000       Uiso       1.00
       H71          H  0.7753156  0.8873733  0.3321341    0.00000       Uiso       1.00
       H72          H  0.7846916  0.8401030  0.3834996    0.00000       Uiso       1.00
      C262          C  0.7500902  0.8053805  0.3764556    0.00000       Uiso       1.00
      C263          C  0.7468765  0.7929192  0.3691966    0.00000       Uiso       1.00
      C264          C  0.7349643  0.8632616  0.3232721    0.00000       Uiso       1.00
      C265          C  0.7318531  0.8507768  0.3159205    0.00000       Uiso       1.00
      C266          C  0.7517971  0.8748920  0.4429863    0.00000       Uiso       1.00
      C267          C  0.7445507  0.8716727  0.4659118    0.00000       Uiso       1.00
       N67          N  0.7325733  0.8854704  0.3124755    0.00000       Uiso       1.00
      O133          O  0.7281762  0.8921935  0.2976914    0.00000       Uiso       1.00
      O134          O  0.7350546  0.8965437  0.3186061    0.00000       Uiso       1.00
       N68          N  0.7263012  0.8600414  0.2974727    0.00000       Uiso       1.00
      O135          O  0.7245794  0.8779107  0.2892945    0.00000       Uiso       1.00
      O136          O  0.7235735  0.8495982  0.2908679    0.00000       Uiso       1.00
       N69          N  0.7559913  0.7959890  0.3946574    0.00000       Uiso       1.00
      O137          O  0.7580233  0.7779832  0.4026423    0.00000       Uiso       1.00
      O138          O  0.7586876  0.8064674  0.4012589    0.00000       Uiso       1.00
       N70          N  0.7495024  0.7706105  0.3798561    0.00000       Uiso       1.00
      O139          O  0.7542673  0.7637430  0.3943809    0.00000       Uiso       1.00
      O140          O  0.7468427  0.7596007  0.3738744    0.00000       Uiso       1.00
       N71          N  0.7700046  0.8807890  0.4282759    0.00000       Uiso       1.00
      O141          O  0.7780047  0.8828132  0.4362586    0.00000       Uiso       1.00
      O142          O  0.7765948  0.8834910  0.4085070    0.00000       Uiso       1.00
       N72          N  0.7552289  0.8742890  0.4749275    0.00000       Uiso       1.00
      O143          O  0.7697576  0.8790509  0.4625065    0.00000       Uiso       1.00
      O144          O  0.7492588  0.8716235  0.4945711    0.00000       Uiso       1.00
      C268          C  0.3749439  0.3748881  0.1249999    0.00000       Uiso       1.00
      C269          C  0.3036911  0.2699846  0.1652916    0.00000       Uiso       1.00
      C270          C  0.2990836  0.2825465  0.1804123    0.00000       Uiso       1.00
      C271          C  0.2842046  0.2819815  0.2034414    0.00000       Uiso       1.00
      C272          C  0.2738220  0.2692403  0.2112389    0.00000       Uiso       1.00
      C273          C  0.2782286  0.2568792  0.1960760    0.00000       Uiso       1.00
      C274          C  0.2932292  0.2573175  0.1730575    0.00000       Uiso       1.00
       H73          H  0.2969872  0.2478026  0.1610499    0.00000       Uiso       1.00
       H74          H  0.2623498  0.2691003  0.2291011    0.00000       Uiso       1.00
      C275          C  0.4876331  0.3545666  0.9568225    0.00000       Uiso       1.00
      C276          C  0.5107114  0.3440672  0.9488614    0.00000       Uiso       1.00
      C277          C  0.4800309  0.3627201  0.9413888    0.00000       Uiso       1.00
      C278          C  0.4953433  0.3601522  0.9182685    0.00000       Uiso       1.00
      C279          C  0.5184639  0.3494099  0.9103072    0.00000       Uiso       1.00
      C280          C  0.5260608  0.3413884  0.9257358    0.00000       Uiso       1.00
       H75          H  0.5438281  0.3331493  0.9199734    0.00000       Uiso       1.00
       H76          H  0.4890801  0.3665448  0.9066643    0.00000       Uiso       1.00
      C281          C  0.4508704  0.3193932  0.2172920    0.00000       Uiso       1.00
      C282          C  0.4462617  0.3345027  0.2298673    0.00000       Uiso       1.00
      C283          C  0.4657599  0.2963637  0.2178364    0.00000       Uiso       1.00
      C284          C  0.4761517  0.2885548  0.2305706    0.00000       Uiso       1.00
      C285          C  0.4717438  0.3037066  0.2429452    0.00000       Uiso       1.00
      C286          C  0.4567327  0.3267255  0.2425276    0.00000       Uiso       1.00
       H77          H  0.4529737  0.3387246  0.2520532    0.00000       Uiso       1.00
       H78          H  0.4876319  0.2706924  0.2306947    0.00000       Uiso       1.00
      C287          C  0.2621883  0.5430470  0.1454726    0.00000       Uiso       1.00
      C288          C  0.2391111  0.5509987  0.1559791    0.00000       Uiso       1.00
      C289          C  0.2697800  0.5584880  0.1373329    0.00000       Uiso       1.00
      C290          C  0.2544584  0.5816059  0.1399214    0.00000       Uiso       1.00
      C291          C  0.2313391  0.5895575  0.1506709    0.00000       Uiso       1.00
      C292          C  0.2237527  0.5741218  0.1586786    0.00000       Uiso       1.00
       H79          H  0.2059864  0.5798768  0.1669229    0.00000       Uiso       1.00
       H80          H  0.2607136  0.5932159  0.1335393    0.00000       Uiso       1.00
       N73          N  0.4554968  0.3742444  0.9494700    0.00000       Uiso       1.00
      O145          O  0.4491414  0.3811556  0.9361961    0.00000       Uiso       1.00
      O146          O  0.4421921  0.3765689  0.9692177    0.00000       Uiso       1.00
       N74          N  0.5193866  0.3356441  0.9647626    0.00000       Uiso       1.00
      O147          O  0.5391473  0.3267265  0.9576403    0.00000       Uiso       1.00
      O148          O  0.5065798  0.3378107  0.9846259    0.00000       Uiso       1.00
       N75          N  0.4706791  0.2799188  0.2048301    0.00000       Uiso       1.00
      O149          O  0.4834034  0.2602950  0.2053799    0.00000       Uiso       1.00
      O150          O  0.4618986  0.2863629  0.1938581    0.00000       Uiso       1.00
       N76          N  0.4301014  0.3590718  0.2301265    0.00000       Uiso       1.00
      O151          O  0.4263887  0.3717037  0.2409664    0.00000       Uiso       1.00
      O152          O  0.4208640  0.3661287  0.2194960    0.00000       Uiso       1.00
       N77          N  0.2304468  0.5350899  0.1643880    0.00000       Uiso       1.00
      O153          O  0.2106869  0.5422043  0.1733120    0.00000       Uiso       1.00
      O154          O  0.2432615  0.5152286  0.1622036    0.00000       Uiso       1.00
       N78          N  0.2943126  0.5504171  0.1258014    0.00000       Uiso       1.00
      O155          O  0.3006589  0.5636971  0.1189021    0.00000       Uiso       1.00
      O156          O  0.3076250  0.5306715  0.1234592    0.00000       Uiso       1.00
       N79          N  0.2792869  0.2949730  0.2198979    0.00000       Uiso       1.00
      O157          O  0.2665717  0.2944057  0.2395212    0.00000       Uiso       1.00
      O158          O  0.2880597  0.3059509  0.2134636    0.00000       Uiso       1.00
       N80          N  0.3198406  0.2697474  0.1407222    0.00000       Uiso       1.00
      O159          O  0.3235525  0.2589188  0.1280807    0.00000       Uiso       1.00
      O160          O  0.3290701  0.2803842  0.1336748    0.00000       Uiso       1.00
      C293          C  0.3435631  0.3008121  0.1475245    0.00000       Uiso       1.00
      C294          C  0.3316956  0.3217005  0.1571883    0.00000       Uiso       1.00
      C295          C  0.3092597  0.3298407  0.1743844    0.00000       Uiso       1.00
      C296          C  0.2988195  0.3171451  0.1817392    0.00000       Uiso       1.00
      C297          C  0.3103930  0.2961598  0.1722193    0.00000       Uiso       1.00
      C298          C  0.3329166  0.2882921  0.1549735    0.00000       Uiso       1.00
       H81          H  0.3423795  0.2722109  0.1475467    0.00000       Uiso       1.00
       H82          H  0.2815302  0.3238283  0.1947154    0.00000       Uiso       1.00
      C299          C  0.4391340  0.3639000  0.0285784    0.00000       Uiso       1.00
      C300          C  0.4578190  0.3661160  0.0195533    0.00000       Uiso       1.00
      C301          C  0.4362195  0.3586653  0.0142904    0.00000       Uiso       1.00
      C302          C  0.4519864  0.3555981  0.9911575    0.00000       Uiso       1.00
      C303          C  0.4709183  0.3576643  0.9817415    0.00000       Uiso       1.00
      C304          C  0.4735225  0.3629367  0.9963896    0.00000       Uiso       1.00
       H83          H  0.4875679  0.3649820  0.9897681    0.00000       Uiso       1.00
       H84          H  0.4496059  0.3512887  0.9805572    0.00000       Uiso       1.00
      C305          C  0.4182305  0.3426522  0.1781587    0.00000       Uiso       1.00
      C306          C  0.4063679  0.3522972  0.1990558    0.00000       Uiso       1.00
      C307          C  0.4406705  0.3254635  0.1700031    0.00000       Uiso       1.00
      C308          C  0.4511197  0.3180974  0.1826921    0.00000       Uiso       1.00
      C309          C  0.4395512  0.3275984  0.2036860    0.00000       Uiso       1.00
      C310          C  0.4170234  0.3448370  0.2115692    0.00000       Uiso       1.00
       H85          H  0.4075643  0.3522494  0.2276571    0.00000       Uiso       1.00
       H86          H  0.4684118  0.3051272  0.1759973    0.00000       Uiso       1.00
      C311          C  0.3107157  0.4712997  0.1360743    0.00000       Uiso       1.00
      C312          C  0.2920257  0.4803269  0.1338664    0.00000       Uiso       1.00
      C313          C  0.3136262  0.4855831  0.1413216    0.00000       Uiso       1.00
      C314          C  0.2978499  0.5087128  0.1444104    0.00000       Uiso       1.00
      C315          C  0.2789129  0.5181307  0.1423526    0.00000       Uiso       1.00
      C316          C  0.2763128  0.5034873  0.1370673    0.00000       Uiso       1.00
       H87          H  0.2622635  0.5101107  0.1350279    0.00000       Uiso       1.00
       H88          H  0.3002277  0.5193093  0.1487292    0.00000       Uiso       1.00
      C317          C  0.3660007  0.2928022  0.1306180    0.00000       Uiso       1.00
      C318          C  0.3764646  0.3052699  0.1233701    0.00000       Uiso       1.00
      C319          C  0.2976992  0.3506123  0.1839457    0.00000       Uiso       1.00
      C320          C  0.3081532  0.3631036  0.1766053    0.00000       Uiso       1.00
      C321          C  0.4522261  0.3159209  0.1492229    0.00000       Uiso       1.00
      C322          C  0.4417632  0.3232725  0.1367381    0.00000       Uiso       1.00
      C323          C  0.3324037  0.4763661  0.1433251    0.00000       Uiso       1.00
      C324          C  0.3480040  0.4534267  0.1402082    0.00000       Uiso       1.00
      C325          C  0.2895367  0.4659117  0.1283280    0.00000       Uiso       1.00
      C326          C  0.3052157  0.4429862  0.1251087    0.00000       Uiso       1.00
       N81          N  0.4549509  0.3124759  0.1145293    0.00000       Uiso       1.00
      O161          O  0.4463002  0.3185262  0.1035123    0.00000       Uiso       1.00
      O162          O  0.4741677  0.2977748  0.1077493    0.00000       Uiso       1.00
       N82          N  0.4762259  0.2974733  0.1399583    0.00000       Uiso       1.00
      O163          O  0.4861259  0.2892952  0.1220888    0.00000       Uiso       1.00
      O164          O  0.4855581  0.2908678  0.1504019    0.00000       Uiso       1.00
       N83          N  0.3678328  0.4444135  0.1425891    0.00000       Uiso       1.00
      O165          O  0.3814541  0.4247530  0.1399837    0.00000       Uiso       1.00
      O166          O  0.3701019  0.4568491  0.1471024    0.00000       Uiso       1.00
       N84          N  0.3361230  0.4911005  0.1488728    0.00000       Uiso       1.00
      O167          O  0.3522794  0.4831375  0.1505865    0.00000       Uiso       1.00
      O168          O  0.3229487  0.5108690  0.1516051    0.00000       Uiso       1.00
       N85          N  0.3017184  0.4282758  0.1192120    0.00000       Uiso       1.00
      O169          O  0.3149759  0.4085296  0.1163692    0.00000       Uiso       1.00
      O170          O  0.2856604  0.4362323  0.1173288    0.00000       Uiso       1.00
       N86          N  0.2698426  0.4749274  0.1257121    0.00000       Uiso       1.00
      O171          O  0.2677348  0.4625064  0.1209504    0.00000       Uiso       1.00
      O172          O  0.2561695  0.4945712  0.1283766    0.00000       Uiso       1.00
       N87          N  0.2949604  0.3853027  0.1874219    0.00000       Uiso       1.00
      O173          O  0.3036036  0.3963250  0.1813814    0.00000       Uiso       1.00
      O174          O  0.2757472  0.3920695  0.2021292    0.00000       Uiso       1.00
       N88          N  0.2737035  0.3598603  0.2024018    0.00000       Uiso       1.00
      O175          O  0.2637992  0.3777223  0.2105959    0.00000       Uiso       1.00
      O176          O  0.2643789  0.3494107  0.2089979    0.00000       Uiso       1.00
       N89          N  0.3792914  0.2705029  0.1199385    0.00000       Uiso       1.00
      O177          O  0.3985776  0.2636485  0.1054077    0.00000       Uiso       1.00
      O178          O  0.3706574  0.2594883  0.1259098    0.00000       Uiso       1.00
       N90          N  0.4005636  0.2958947  0.1051599    0.00000       Uiso       1.00
      O179          O  0.4098935  0.3063165  0.0986698    0.00000       Uiso       1.00
      O180          O  0.4105453  0.2779620  0.0970570    0.00000       Uiso       1.00
      C327          C  0.3751439  0.3389902  0.1252902    0.00000       Uiso       1.00
      C328          C  0.3632539  0.3606607  0.1337369    0.00000       Uiso       1.00
      C329          C  0.3410325  0.3678877  0.1517620    0.00000       Uiso       1.00
      C330          C  0.3304584  0.3552631  0.1594018    0.00000       Uiso       1.00
      C331          C  0.3422956  0.3344452  0.1496877    0.00000       Uiso       1.00
      C332          C  0.3647779  0.3262009  0.1326988    0.00000       Uiso       1.00
       H89          H  0.3925499  0.3321341  0.1126267    0.00000       Uiso       1.00
       H90          H  0.3318084  0.3834997  0.1598970    0.00000       Uiso       1.00
      C333          C  0.3921089  0.3719543  0.0990864    0.00000       Uiso       1.00
      C334          C  0.4103355  0.3754101  0.0893021    0.00000       Uiso       1.00
      C335          C  0.3890635  0.3677633  0.0841001    0.00000       Uiso       1.00
      C336          C  0.4046085  0.3648463  0.0609048    0.00000       Uiso       1.00
      C337          C  0.4233037  0.3669819  0.0519198    0.00000       Uiso       1.00
      C338          C  0.4260685  0.3724702  0.0661501    0.00000       Uiso       1.00
       H91          H  0.4124595  0.3801489  0.0998463    0.00000       Uiso       1.00
       H92          H  0.3745399  0.3666647  0.0904916    0.00000       Uiso       1.00
      C339          C  0.3866443  0.3661385  0.1392195    0.00000       Uiso       1.00
      C340          C  0.3747601  0.3745657  0.1608976    0.00000       Uiso       1.00
      C341          C  0.4088705  0.3481200  0.1319763    0.00000       Uiso       1.00
      C342          C  0.4194537  0.3404688  0.1445940    0.00000       Uiso       1.00
      C343          C  0.4076214  0.3501642  0.1654207    0.00000       Uiso       1.00
      C344          C  0.3851352  0.3671456  0.1736803    0.00000       Uiso       1.00
       H93          H  0.3573515  0.3872229  0.1677651    0.00000       Uiso       1.00
       H94          H  0.4180914  0.3399990  0.1163570    0.00000       Uiso       1.00
      C345          C  0.3577687  0.4007990  0.1279570    0.00000       Uiso       1.00
      C346          C  0.3395361  0.4105863  0.1245100    0.00000       Uiso       1.00
      C347          C  0.3608093  0.4157816  0.1321613    0.00000       Uiso       1.00
      C348          C  0.3452552  0.4389742  0.1350989    0.00000       Uiso       1.00
      C349          C  0.3265551  0.4479611  0.1329716    0.00000       Uiso       1.00
      C350          C  0.3237940  0.4337357  0.1274707    0.00000       Uiso       1.00
       H95          H  0.3374147  0.4000463  0.1197619    0.00000       Uiso       1.00
       H96          H  0.3753363  0.4093891  0.1332541    0.00000       Uiso       1.00
      C351          C  0.4446416  0.3748405  0.0569017    0.00000       Uiso       1.00
      C352          C  0.4603119  0.3716417  0.0339733    0.00000       Uiso       1.00
      C353          C  0.4018556  0.3597499  0.0464477    0.00000       Uiso       1.00
      C354          C  0.4174471  0.3566535  0.0235056    0.00000       Uiso       1.00
      C355          C  0.3734536  0.3764555  0.1946197    0.00000       Uiso       1.00
      C356          C  0.3839264  0.3691964  0.2070809    0.00000       Uiso       1.00
       N91          N  0.3820320  0.3573608  0.0554589    0.00000       Uiso       1.00
      O181          O  0.3796974  0.3529778  0.0429977    0.00000       Uiso       1.00
      O182          O  0.3684813  0.3598292  0.0751391    0.00000       Uiso       1.00
       N92          N  0.4137237  0.3511189  0.0087663    0.00000       Uiso       1.00
      O183          O  0.3975717  0.3493980  0.0167277    0.00000       Uiso       1.00
      O184          O  0.4268900  0.3484051  0.9889950    0.00000       Uiso       1.00
       N93          N  0.4481428  0.3807243  0.0716173    0.00000       Uiso       1.00
      O185          O  0.4641210  0.3827554  0.0636366    0.00000       Uiso       1.00
      O186          O  0.4349722  0.3834075  0.0913888    0.00000       Uiso       1.00
       N94          N  0.4800007  0.3742657  0.0249600    0.00000       Uiso       1.00
      O187          O  0.4821119  0.3790164  0.0373853    0.00000       Uiso       1.00
      O188          O  0.4936662  0.3716187  0.0053138    0.00000       Uiso       1.00
       N95          N  0.3493506  0.3946572  0.2040113    0.00000       Uiso       1.00
      O189          O  0.3393336  0.4026420  0.2220172    0.00000       Uiso       1.00
      O190          O  0.3400526  0.4012580  0.1935333    0.00000       Uiso       1.00
       N96          N  0.3706408  0.3798558  0.2293898    0.00000       Uiso       1.00
      O191          O  0.3513511  0.3943804  0.2362573    0.00000       Uiso       1.00
      O192          O  0.3792824  0.3738748  0.2403991    0.00000       Uiso       1.00
      C357          C  0.0000557  0.1250004  0.6251117    0.00000       Uiso       1.00
      C358          C  0.0404262  0.9488618  0.6559332    0.00000       Uiso       1.00
      C359          C  0.0555433  0.9568229  0.6454339    0.00000       Uiso       1.00
      C360          C  0.0785793  0.9413892  0.6372803    0.00000       Uiso       1.00
      C361          C  0.0863871  0.9182690  0.6398482    0.00000       Uiso       1.00
      C362          C  0.0712278  0.9103078  0.6505905    0.00000       Uiso       1.00
      C363          C  0.0482024  0.9257362  0.6586120    0.00000       Uiso       1.00
       H97          H  0.0361973  0.9199740  0.6668511    0.00000       Uiso       1.00
       H98          H  0.1042547  0.9066647  0.6334556    0.00000       Uiso       1.00
      C364          C  0.8318371  0.2172925  0.6806067    0.00000       Uiso       1.00
      C365          C  0.8238704  0.2298679  0.6654972    0.00000       Uiso       1.00
      C366          C  0.8164032  0.2178369  0.7036362    0.00000       Uiso       1.00
      C367          C  0.7932771  0.2305711  0.7114451    0.00000       Uiso       1.00
      C368          C  0.7853104  0.2429457  0.6962932    0.00000       Uiso       1.00
      C369          C  0.8007392  0.2425281  0.6732743    0.00000       Uiso       1.00
       H99          H  0.7949725  0.2520537  0.6612753    0.00000       Uiso       1.00
      H100          H  0.7816729  0.2306952  0.7293075    0.00000       Uiso       1.00
      C370          C  0.0923387  0.1454730  0.4569528    0.00000       Uiso       1.00
      C371          C  0.1049094  0.1559794  0.4490011    0.00000       Uiso       1.00
      C372          C  0.0928868  0.1373333  0.4415118    0.00000       Uiso       1.00
      C373          C  0.1056198  0.1399218  0.4183939    0.00000       Uiso       1.00
      C374          C  0.1179897  0.1506712  0.4104423    0.00000       Uiso       1.00
      C375          C  0.1175684  0.1586789  0.4258779    0.00000       Uiso       1.00
      H101          H  0.1270904  0.1669232  0.4201230    0.00000       Uiso       1.00
      H102          H  0.1057468  0.1335396  0.4067839    0.00000       Uiso       1.00
      C376          C  0.0205036  0.1804129  0.7174533    0.00000       Uiso       1.00
      C377          C  0.0310169  0.1652922  0.7300152    0.00000       Uiso       1.00
      C378          C  0.0123536  0.2034419  0.7180183    0.00000       Uiso       1.00
      C379          C  0.0149386  0.2112394  0.7307595    0.00000       Uiso       1.00
      C380          C  0.0256949  0.1960765  0.7431206    0.00000       Uiso       1.00
      C381          C  0.0337129  0.1730580  0.7426823    0.00000       Uiso       1.00
      H103          H  0.0419625  0.1610505  0.7521972    0.00000       Uiso       1.00
      H104          H  0.0085485  0.2291017  0.7308996    0.00000       Uiso       1.00
       N97          N  0.8244901  0.2048307  0.7200811    0.00000       Uiso       1.00
      O193          O  0.8112161  0.2053805  0.7397048    0.00000       Uiso       1.00
      O194          O  0.8442428  0.1938594  0.7136371    0.00000       Uiso       1.00
       N98          N  0.8397715  0.2301270  0.6409280    0.00000       Uiso       1.00
      O195          O  0.8326444  0.2409669  0.6282962    0.00000       Uiso       1.00
      O196          O  0.8596395  0.2194957  0.6338710    0.00000       Uiso       1.00
       N99          N  0.0798857  0.1258018  0.4495827    0.00000       Uiso       1.00
      O197          O  0.0804386  0.1189025  0.4363027    0.00000       Uiso       1.00
      O198          O  0.0689146  0.1234605  0.4693283    0.00000       Uiso       1.00
      N100          N  0.1051648  0.1643884  0.4649099    0.00000       Uiso       1.00
      O199          O  0.1160007  0.1733123  0.4577955    0.00000       Uiso       1.00
      O200          O  0.0945352  0.1622031  0.4847712    0.00000       Uiso       1.00
      N101          N  0.0394368  0.1407228  0.7302523    0.00000       Uiso       1.00
      O201          O  0.0483664  0.1280813  0.7410809    0.00000       Uiso       1.00
      O202          O  0.0372556  0.1336752  0.7196147    0.00000       Uiso       1.00
      N102          N  0.0008148  0.2198984  0.7050267    0.00000       Uiso       1.00
      O203          O  0.9939066  0.2395217  0.7055942    0.00000       Uiso       1.00
      O204          O  0.9984754  0.2134642  0.6940498    0.00000       Uiso       1.00
      N103          N  0.0950323  0.9494704  0.6257560    0.00000       Uiso       1.00
      O205          O  0.1146614  0.9361966  0.6188449    0.00000       Uiso       1.00
      O206          O  0.0885891  0.9692181  0.6234324    0.00000       Uiso       1.00
      N104          N  0.0158497  0.9647632  0.6643564    0.00000       Uiso       1.00
      O207          O  0.0032113  0.9576408  0.6732740    0.00000       Uiso       1.00
      O208          O  0.0087934  0.9846264  0.6621889    0.00000       Uiso       1.00
      C382          C  0.0226274  0.0195537  0.6338836    0.00000       Uiso       1.00
      C383          C  0.0322872  0.0285789  0.6360997    0.00000       Uiso       1.00
      C384          C  0.0494898  0.0142909  0.6413344    0.00000       Uiso       1.00
      C385          C  0.0568549  0.9911580  0.6444024    0.00000       Uiso       1.00
      C386          C  0.0473392  0.9817420  0.6423362    0.00000       Uiso       1.00
      C387          C  0.0300868  0.9963901  0.6370637    0.00000       Uiso       1.00
      H105          H  0.0226629  0.9897686  0.6350185    0.00000       Uiso       1.00
      H106          H  0.0698358  0.9805577  0.6487118    0.00000       Uiso       1.00
      C388          C  0.9036103  0.1781593  0.6573476    0.00000       Uiso       1.00
      C389          C  0.8945758  0.1990563  0.6477025    0.00000       Uiso       1.00
      C390          C  0.8893259  0.1700038  0.6745365    0.00000       Uiso       1.00
      C391          C  0.8661877  0.1826927  0.6819026    0.00000       Uiso       1.00
      C392          C  0.8567623  0.2036865  0.6724014    0.00000       Uiso       1.00
      C393          C  0.8714069  0.2115696  0.6551627    0.00000       Uiso       1.00
      H107          H  0.8647781  0.2276574  0.6477502    0.00000       Uiso       1.00
      H108          H  0.8555903  0.1759980  0.6948728    0.00000       Uiso       1.00
      C394          C  0.0532096  0.1360747  0.5287001    0.00000       Uiso       1.00
      C395          C  0.0741077  0.1338665  0.5196728    0.00000       Uiso       1.00
      C396          C  0.0450517  0.1413223  0.5144167    0.00000       Uiso       1.00
      C397          C  0.0577393  0.1444111  0.4912870    0.00000       Uiso       1.00
      C398          C  0.0787341  0.1423530  0.4818691    0.00000       Uiso       1.00
      C399          C  0.0866197  0.1370674  0.4965124    0.00000       Uiso       1.00
      H109          H  0.1027085  0.1350278  0.4898890    0.00000       Uiso       1.00
      H110          H  0.0510426  0.1487300  0.4806905    0.00000       Uiso       1.00
      C400          C  0.0111157  0.1571888  0.6782992    0.00000       Uiso       1.00
      C401          C  0.0089121  0.1475249  0.6991876    0.00000       Uiso       1.00
      C402          C  0.0163553  0.1743850  0.6701592    0.00000       Uiso       1.00
      C403          C  0.0194408  0.1817398  0.6828547    0.00000       Uiso       1.00
      C404          C  0.0173873  0.1722198  0.7038400    0.00000       Uiso       1.00
      C405          C  0.0121096  0.1549740  0.7117077    0.00000       Uiso       1.00
      H111          H  0.0100736  0.1475471  0.7277887    0.00000       Uiso       1.00
      H112          H  0.0237538  0.1947160  0.6761716    0.00000       Uiso       1.00
      C406          C  0.0057145  0.0339738  0.6283579    0.00000       Uiso       1.00
      C407          C  0.9984562  0.0569022  0.6251591    0.00000       Uiso       1.00
      C408          C  0.0590469  0.0235062  0.6433462    0.00000       Uiso       1.00
      C409          C  0.0516962  0.0464482  0.6402498    0.00000       Uiso       1.00
      C410          C  0.0242706  0.1433261  0.5236338    0.00000       Uiso       1.00
      C411          C  0.0117872  0.1402092  0.5465731    0.00000       Uiso       1.00
      C412          C  0.0183546  0.1839463  0.6493877    0.00000       Uiso       1.00
      C413          C  0.0152410  0.1766059  0.6368963    0.00000       Uiso       1.00
      C414          C  0.0033812  0.1306183  0.7071974    0.00000       Uiso       1.00
      C415          C  0.0001652  0.1233704  0.6947297    0.00000       Uiso       1.00
      N105          N  0.9895772  0.1425904  0.5555864    0.00000       Uiso       1.00
      O209          O  0.9785613  0.1399851  0.5752469    0.00000       Uiso       1.00
      O210          O  0.9827951  0.1471031  0.5431506    0.00000       Uiso       1.00
      N106          N  0.0150034  0.1488741  0.5088995    0.00000       Uiso       1.00
      O211          O  0.9971331  0.1505881  0.5168624    0.00000       Uiso       1.00
      O212          O  0.0254459  0.1516055  0.4891307    0.00000       Uiso       1.00
      N107          N  0.0176170  0.1874225  0.6146973    0.00000       Uiso       1.00
      O213          O  0.0150143  0.1813821  0.6036749    0.00000       Uiso       1.00
      O214          O  0.0221238  0.2021293  0.6079301    0.00000       Uiso       1.00
      N108          N  0.0238940  0.2024025  0.6401396    0.00000       Uiso       1.00
      O215          O  0.0256040  0.2105967  0.6222777    0.00000       Uiso       1.00
      O216          O  0.0266234  0.2089979  0.6505888    0.00000       Uiso       1.00
      N109          N  0.9942765  0.1051601  0.7041048    0.00000       Uiso       1.00
      O217          O  0.9914367  0.0986700  0.6936830    0.00000       Uiso       1.00
      O218          O  0.9923969  0.0970578  0.7220379    0.00000       Uiso       1.00
      N110          N  0.0007702  0.1199388  0.7294966    0.00000       Uiso       1.00
      O219          O  0.9960148  0.1054078  0.7363510    0.00000       Uiso       1.00
      O220          O  0.0034320  0.1259107  0.7405117    0.00000       Uiso       1.00
      N111          N  0.0625088  0.0554594  0.6426389    0.00000       Uiso       1.00
      O221          O  0.0564596  0.0751222  0.6400511    0.00000       Uiso       1.00
      O222          O  0.0772217  0.0430196  0.6471403    0.00000       Uiso       1.00
      N112          N  0.0775096  0.0087668  0.6488808    0.00000       Uiso       1.00
      O223          O  0.0857002  0.0167282  0.6506017    0.00000       Uiso       1.00
      O224          O  0.0841145  0.9889953  0.6515946    0.00000       Uiso       1.00
      N113          N  0.9950389  0.0249605  0.6257339    0.00000       Uiso       1.00
      O225          O  0.9805026  0.0373857  0.6209831    0.00000       Uiso       1.00
      O226          O  0.0010191  0.0053145  0.6283817    0.00000       Uiso       1.00
      N114          N  0.9802394  0.0716178  0.6192755    0.00000       Uiso       1.00
      O227          O  0.9737405  0.0913666  0.6164504    0.00000       Uiso       1.00
      O228          O  0.9721401  0.0636632  0.6173859    0.00000       Uiso       1.00
      C416          C  0.0003619  0.0893026  0.6245897    0.00000       Uiso       1.00
      C417          C  0.0088043  0.0990869  0.6280454    0.00000       Uiso       1.00
      C418          C  0.0268361  0.0841006  0.6322364    0.00000       Uiso       1.00
      C419          C  0.0344863  0.0609053  0.6351533    0.00000       Uiso       1.00
      C420          C  0.0247762  0.0519203  0.6330178    0.00000       Uiso       1.00
      C421          C  0.0077810  0.0661506  0.6275296    0.00000       Uiso       1.00
      H113          H  0.9876936  0.0998468  0.6198509    0.00000       Uiso       1.00
      H114          H  0.0349682  0.0904920  0.6333349    0.00000       Uiso       1.00
      C422          C  0.9741357  0.1392200  0.6338613    0.00000       Uiso       1.00
      C423          C  0.9643418  0.1608981  0.6254341    0.00000       Uiso       1.00
      C424          C  0.9591526  0.1319769  0.6518799    0.00000       Uiso       1.00
      C425          C  0.9359517  0.1445946  0.6595311    0.00000       Uiso       1.00
      C426          C  0.9269574  0.1654212  0.6498356    0.00000       Uiso       1.00
      C427          C  0.9411839  0.1736808  0.6328542    0.00000       Uiso       1.00
      H115          H  0.9748828  0.1677655  0.6127768    0.00000       Uiso       1.00
      H116          H  0.9655511  0.1163576  0.6600009    0.00000       Uiso       1.00
      C428          C  0.0142740  0.1279574  0.5992007    0.00000       Uiso       1.00
      C429          C  0.0359537  0.1245102  0.5894134    0.00000       Uiso       1.00
      C430          C  0.0070289  0.1321620  0.5842182    0.00000       Uiso       1.00
      C431          C  0.0196454  0.1350996  0.5610256    0.00000       Uiso       1.00
      C432          C  0.0404730  0.1329720  0.5520387    0.00000       Uiso       1.00
      C433          C  0.0487350  0.1274708  0.5662640    0.00000       Uiso       1.00
      H117          H  0.0428233  0.1197619  0.5999534    0.00000       Uiso       1.00
      H118          H  0.9914091  0.1332549  0.5906107    0.00000       Uiso       1.00
      C434          C  0.0030088  0.1337373  0.6393391    0.00000       Uiso       1.00
      C435          C  0.9995655  0.1252906  0.6610096    0.00000       Uiso       1.00
      C436          C  0.0072052  0.1517624  0.6321120    0.00000       Uiso       1.00
      C437          C  0.0101394  0.1594023  0.6447366    0.00000       Uiso       1.00
      C438          C  0.0080163  0.1496882  0.6655545    0.00000       Uiso       1.00
      C439          C  0.0025230  0.1326993  0.6737989    0.00000       Uiso       1.00
      H119          H  0.9948230  0.1126271  0.6678656    0.00000       Uiso       1.00
      H120          H  0.0082943  0.1598974  0.6165001    0.00000       Uiso       1.00
      C440          C  0.9319263  0.1946200  0.6235441    0.00000       Uiso       1.00
      C441          C  0.9089922  0.2070812  0.6308032    0.00000       Uiso       1.00
      C442          C  0.9214982  0.1367388  0.6767275    0.00000       Uiso       1.00
      C443          C  0.8985505  0.1492236  0.6840792    0.00000       Uiso       1.00
      C444          C  0.0696755  0.1251085  0.5570135    0.00000       Uiso       1.00
      C445          C  0.0821353  0.1283278  0.5340880    0.00000       Uiso       1.00
      N115          N  0.9305192  0.1145301  0.6875241    0.00000       Uiso       1.00
      O229          O  0.9180610  0.1078070  0.7023083    0.00000       Uiso       1.00
      O230          O  0.9502044  0.1034567  0.6813935    0.00000       Uiso       1.00
      N116          N  0.8838152  0.1399591  0.7025270    0.00000       Uiso       1.00
      O231          O  0.8917846  0.1220898  0.7107052    0.00000       Uiso       1.00
      O232          O  0.8640395  0.1504023  0.7091318    0.00000       Uiso       1.00
      N117          N  0.9466376  0.2040115  0.6053423    0.00000       Uiso       1.00
      O233          O  0.9386488  0.2220173  0.5973573    0.00000       Uiso       1.00
      O234          O  0.9664139  0.1935331  0.5987408    0.00000       Uiso       1.00
      N118          N  0.8999689  0.2293900  0.6201435    0.00000       Uiso       1.00
      O235          O  0.9123912  0.2362574  0.6056188    0.00000       Uiso       1.00
      O236          O  0.8803178  0.2403997  0.6261253    0.00000       Uiso       1.00
      N119          N  0.0790697  0.1192114  0.5717238    0.00000       Uiso       1.00
      O237          O  0.0970765  0.1171873  0.5637412    0.00000       Uiso       1.00
      O238          O  0.0685929  0.1165095  0.5914927    0.00000       Uiso       1.00
      N120          N  0.1044454  0.1257115  0.5250722    0.00000       Uiso       1.00
      O239          O  0.1113150  0.1209496  0.5374932    0.00000       Uiso       1.00
      O240          O  0.1154535  0.1283770  0.5054286    0.00000       Uiso       1.00
      C446          C  0.2499993  0.0000010  0.9995522    0.00000       Uiso       1.00
      C447          C  0.4261419  0.9288223  0.8637345    0.00000       Uiso       1.00
      C448          C  0.4181923  0.9241998  0.8868040    0.00000       Uiso       1.00
      C449          C  0.4336399  0.9093138  0.8943893    0.00000       Uiso       1.00
      C450          C  0.4567625  0.8989393  0.8790688    0.00000       Uiso       1.00
      C451          C  0.4647122  0.9033610  0.8559569    0.00000       Uiso       1.00
      C452          C  0.4492698  0.9183685  0.8483770    0.00000       Uiso       1.00
      H121          H  0.4550231  0.9221380  0.8306168    0.00000       Uiso       1.00
      H122          H  0.4683777  0.8874614  0.8853189    0.00000       Uiso       1.00
      C453          C  0.1576072  0.1127492  0.9237515    0.00000       Uiso       1.00
      C454          C  0.1450351  0.1358187  0.9283741    0.00000       Uiso       1.00
      C455          C  0.1570456  0.1051639  0.9088655    0.00000       Uiso       1.00
      C456          C  0.1442976  0.1204844  0.8984909    0.00000       Uiso       1.00
      C457          C  0.1319262  0.1435963  0.9029127    0.00000       Uiso       1.00
      C458          C  0.1323610  0.1511762  0.9179202    0.00000       Uiso       1.00
      H123          H  0.1228382  0.1689364  0.9216898    0.00000       Uiso       1.00
      H124          H  0.1441603  0.1142343  0.8870131    0.00000       Uiso       1.00
      C459          C  0.2296436  0.0758010  0.1123008    0.00000       Uiso       1.00
      C460          C  0.2191463  0.0711785  0.1353703    0.00000       Uiso       1.00
      C461          C  0.2377905  0.0906871  0.1047156    0.00000       Uiso       1.00
      C462          C  0.2352180  0.1010616  0.1200361    0.00000       Uiso       1.00
      C463          C  0.2244776  0.0966398  0.1431479    0.00000       Uiso       1.00
      C464          C  0.2164628  0.0816323  0.1507278    0.00000       Uiso       1.00
      H125          H  0.2082254  0.0778628  0.1684881    0.00000       Uiso       1.00
      H126          H  0.2416054  0.1125394  0.1137860    0.00000       Uiso       1.00
      C465          C  0.1945551  0.8872517  0.0753534    0.00000       Uiso       1.00
      C466          C  0.2096749  0.8641822  0.0707308    0.00000       Uiso       1.00
      C467          C  0.1715222  0.8948369  0.0902394    0.00000       Uiso       1.00
      C468          C  0.1637201  0.8795164  0.1006139    0.00000       Uiso       1.00
      C469          C  0.1788823  0.8564046  0.0961922    0.00000       Uiso       1.00
      C470          C  0.2019046  0.8488247  0.0811846    0.00000       Uiso       1.00
      H127          H  0.2139116  0.8310644  0.0774151    0.00000       Uiso       1.00
      H128          H  0.1458549  0.8857666  0.1120917    0.00000       Uiso       1.00
      N121          N  0.1700481  0.0806394  0.9039317    0.00000       Uiso       1.00
      O241          O  0.1694836  0.0742984  0.8912106    0.00000       Uiso       1.00
      O242          O  0.1810311  0.0673279  0.9126982    0.00000       Uiso       1.00
      N122          N  0.1447940  0.1444757  0.9445312    0.00000       Uiso       1.00
      O243          O  0.1339566  0.1642290  0.9482559    0.00000       Uiso       1.00
      O244          O  0.1554374  0.1316616  0.9537532    0.00000       Uiso       1.00
      N123          N  0.2493125  0.0956208  0.0801910    0.00000       Uiso       1.00
      O245          O  0.2562180  0.1083420  0.0738501    0.00000       Uiso       1.00
      O246          O  0.2516401  0.0868551  0.0668797    0.00000       Uiso       1.00
      N124          N  0.2107303  0.0550214  0.1440273    0.00000       Uiso       1.00
      O247          O  0.2018144  0.0512967  0.1637807    0.00000       Uiso       1.00
      O248          O  0.2129019  0.0457986  0.1312131    0.00000       Uiso       1.00
      N125          N  0.2342480  0.8555252  0.0545737    0.00000       Uiso       1.00
      O249          O  0.2468887  0.8357718  0.0508490    0.00000       Uiso       1.00
      O250          O  0.2412993  0.8683392  0.0453517    0.00000       Uiso       1.00
      N126          N  0.1550663  0.9193615  0.0951732    0.00000       Uiso       1.00
      O251          O  0.1354397  0.9257024  0.1078943    0.00000       Uiso       1.00
      O252          O  0.1615044  0.9326729  0.0864067    0.00000       Uiso       1.00
      N127          N  0.4255712  0.9043800  0.9189138    0.00000       Uiso       1.00
      O253          O  0.4388569  0.8916589  0.9252548    0.00000       Uiso       1.00
      O254          O  0.4058217  0.9131458  0.9322252    0.00000       Uiso       1.00
      N128          N  0.4102258  0.9449794  0.8550776    0.00000       Uiso       1.00
      O255          O  0.4173386  0.9487042  0.8353242    0.00000       Uiso       1.00
      O256          O  0.3903605  0.9542023  0.8678917    0.00000       Uiso       1.00
      C471          C  0.3554522  0.9686608  0.9166532    0.00000       Uiso       1.00
      C472          C  0.3464304  0.9567860  0.9353285    0.00000       Uiso       1.00
      C473          C  0.3607238  0.9343511  0.9382253    0.00000       Uiso       1.00
      C474          C  0.3838582  0.9239193  0.9224499    0.00000       Uiso       1.00
      C475          C  0.3932709  0.9355004  0.9035276    0.00000       Uiso       1.00
      C476          C  0.3786174  0.9580227  0.9009412    0.00000       Uiso       1.00
      H129          H  0.3852366  0.9674910  0.8869033    0.00000       Uiso       1.00
      H130          H  0.3944624  0.9066309  0.9248170    0.00000       Uiso       1.00
      C477          C  0.1967830  0.0642247  0.9563376    0.00000       Uiso       1.00
      C478          C  0.1758863  0.0829001  0.9682125    0.00000       Uiso       1.00
      C479          C  0.2049244  0.0613280  0.9339028    0.00000       Uiso       1.00
      C480          C  0.1922218  0.0771033  0.9234710    0.00000       Uiso       1.00
      C481          C  0.1712281  0.0960256  0.9350521    0.00000       Uiso       1.00
      C482          C  0.1633592  0.0986121  0.9575744    0.00000       Uiso       1.00
      H131          H  0.1472717  0.1126500  0.9670427    0.00000       Uiso       1.00
      H132          H  0.1989060  0.0747362  0.9061826    0.00000       Uiso       1.00
      C483          C  0.2389923  0.0432149  0.0637764    0.00000       Uiso       1.00
      C484          C  0.2412139  0.0313400  0.0824516    0.00000       Uiso       1.00
      C485          C  0.2337474  0.0656498  0.0608798    0.00000       Uiso       1.00
      C486          C  0.2306747  0.0760816  0.0766551    0.00000       Uiso       1.00
      C487          C  0.2327464  0.0645005  0.0955773    0.00000       Uiso       1.00
      C488          C  0.2380290  0.0419781  0.0981636    0.00000       Uiso       1.00
      H133          H  0.2400787  0.0325098  0.1122014    0.00000       Uiso       1.00
      H134          H  0.2263575  0.0933700  0.0742881    0.00000       Uiso       1.00
      C489          C  0.2177925  0.9357761  0.0427673    0.00000       Uiso       1.00
      C490          C  0.2274461  0.9171007  0.0308924    0.00000       Uiso       1.00
      C491          C  0.2006023  0.9386729  0.0652021    0.00000       Uiso       1.00
      C492          C  0.1932432  0.9228976  0.0756339    0.00000       Uiso       1.00
      C493          C  0.2027529  0.9039752  0.0640528    0.00000       Uiso       1.00
      C494          C  0.2199929  0.9013886  0.0415305    0.00000       Uiso       1.00
      H135          H  0.2274117  0.8873508  0.0320622    0.00000       Uiso       1.00
      H136          H  0.1802719  0.9252647  0.0929222    0.00000       Uiso       1.00
      C495          C  0.3410271  0.9910970  0.9141779    0.00000       Uiso       1.00
      C496          C  0.3180969  0.0015529  0.9298560    0.00000       Uiso       1.00
      C497          C  0.3515119  0.9227830  0.9569882    0.00000       Uiso       1.00
      C498          C  0.3285679  0.9332287  0.9725876    0.00000       Uiso       1.00
      C499          C  0.2317302  0.0772179  0.0421169    0.00000       Uiso       1.00
      C500          C  0.2348313  0.0667722  0.0265175    0.00000       Uiso       1.00
      C501          C  0.1910512  0.9574359  0.0767701    0.00000       Uiso       1.00
      C502          C  0.1983958  0.9730353  0.0663245    0.00000       Uiso       1.00
      C503          C  0.2443467  0.9146253  0.0084563    0.00000       Uiso       1.00
      C504          C  0.2515983  0.9303042  0.9980005    0.00000       Uiso       1.00
      N129          N  0.2324361  0.0799728  0.0067047    0.00000       Uiso       1.00
      O257          O  0.2350273  0.0713378  0.9930842    0.00000       Uiso       1.00
      O258          O  0.2279260  0.0991851  0.0044469    0.00000       Uiso       1.00
      N130          N  0.2261847  0.1012128  0.0384126    0.00000       Uiso       1.00
      O259          O  0.2244592  0.1111236  0.0222689    0.00000       Uiso       1.00
      O260          O  0.2234668  0.1105302  0.0515860    0.00000       Uiso       1.00
      N131          N  0.1875901  0.9928483  0.0795249    0.00000       Uiso       1.00
      O261          O  0.1936343  0.0064688  0.0708891    0.00000       Uiso       1.00
      O262          O  0.1728884  0.9951058  0.0987374    0.00000       Uiso       1.00
      N132          N  0.1726015  0.9611404  0.1007649    0.00000       Uiso       1.00
      O263          O  0.1644161  0.9772844  0.1106756    0.00000       Uiso       1.00
      O264          O  0.1660026  0.9479666  0.1100826    0.00000       Uiso       1.00
      N133          N  0.2698017  0.9268219  0.9739026    0.00000       Uiso       1.00
      O265          O  0.2762952  0.9400789  0.9645800    0.00000       Uiso       1.00
      O266          O  0.2778952  0.9107765  0.9639143    0.00000       Uiso       1.00
      N134          N  0.2550147  0.8949480  0.9951577    0.00000       Uiso       1.00
      O267          O  0.2695404  0.8928519  0.9758726    0.00000       Uiso       1.00
      O268          O  0.2490394  0.8812751  0.0037845    0.00000       Uiso       1.00
      N135          N  0.3195605  0.9200282  0.9924006    0.00000       Uiso       1.00
      O269          O  0.2998965  0.9286633  0.0060211    0.00000       Uiso       1.00
      O270          O  0.3320049  0.9008160  0.9946584    0.00000       Uiso       1.00
      N136          N  0.3662570  0.8987883  0.9606925    0.00000       Uiso       1.00
      O271          O  0.3582985  0.8888775  0.9768364    0.00000       Uiso       1.00
      O272          O  0.3860300  0.8894708  0.9475192    0.00000       Uiso       1.00
      N137          N  0.3500369  0.0043957  0.8944998    0.00000       Uiso       1.00
      O273          O  0.3376072  0.0236807  0.8924038    0.00000       Uiso       1.00
      O274          O  0.3696843  0.9957686  0.8808274    0.00000       Uiso       1.00
      N138          N  0.3033758  0.0256508  0.9263738    0.00000       Uiso       1.00
      O275          O  0.2836253  0.0349734  0.9396307    0.00000       Uiso       1.00
      O276          O  0.3113276  0.0356388  0.9103280    0.00000       Uiso       1.00
      C505          C  0.2856975  0.0002166  0.9641606    0.00000       Uiso       1.00
      C506          C  0.2759155  0.9883196  0.9823781    0.00000       Uiso       1.00
      C507          C  0.2909079  0.9660988  0.9854056    0.00000       Uiso       1.00
      C508          C  0.3141054  0.9555329  0.9698524    0.00000       Uiso       1.00
      C509          C  0.3230870  0.9673775  0.9511669    0.00000       Uiso       1.00
      C510          C  0.3088516  0.9898585  0.9484196    0.00000       Uiso       1.00
      H137          H  0.2751498  0.0176214  0.9620501    0.00000       Uiso       1.00
      H138          H  0.2845197  0.9568686  0.9999214    0.00000       Uiso       1.00
      C511          C  0.2357643  0.0171752  0.9878712    0.00000       Uiso       1.00
      C512          C  0.2140856  0.0353926  0.9997678    0.00000       Uiso       1.00
      C513          C  0.2429926  0.0141477  0.9656504    0.00000       Uiso       1.00
      C514          C  0.2303611  0.0297008  0.9550845    0.00000       Uiso       1.00
      C515          C  0.2095348  0.0483863  0.9669291    0.00000       Uiso       1.00
      C516          C  0.2012892  0.0511336  0.9894102    0.00000       Uiso       1.00
      H139          H  0.2072289  0.0375023  0.0171730    0.00000       Uiso       1.00
      H140          H  0.2586111  0.9996315  0.9564202    0.00000       Uiso       1.00
      C517          C  0.2470607  0.0116813  0.0167268    0.00000       Uiso       1.00
      C518          C  0.2505220  0.9997842  0.0349442    0.00000       Uiso       1.00
      C519          C  0.2428596  0.0339022  0.0136994    0.00000       Uiso       1.00
      C520          C  0.2399379  0.0444680  0.0292526    0.00000       Uiso       1.00
      C521          C  0.2420789  0.0326233  0.0479380    0.00000       Uiso       1.00
      C522          C  0.2475774  0.0101423  0.0506851    0.00000       Uiso       1.00
      H141          H  0.2552686  0.9823794  0.0370546    0.00000       Uiso       1.00
      H142          H  0.2417565  0.0431332  0.9991833    0.00000       Uiso       1.00
      C523          C  0.2412578  0.9828256  0.0112337    0.00000       Uiso       1.00
      C524          C  0.2496929  0.9646090  0.9993367    0.00000       Uiso       1.00
      C525          C  0.2232378  0.9858532  0.0334545    0.00000       Uiso       1.00
      C526          C  0.2155935  0.9703000  0.0440203    0.00000       Uiso       1.00
      C527          C  0.2252975  0.9516145  0.0321757    0.00000       Uiso       1.00
      C528          C  0.2422802  0.9488672  0.0096947    0.00000       Uiso       1.00
      H143          H  0.2623512  0.9624984  0.9819319    0.00000       Uiso       1.00
      H144          H  0.2151103  0.0003694  0.0426846    0.00000       Uiso       1.00
      C529          C  0.1803503  0.0696964  0.0011045    0.00000       Uiso       1.00
      C530          C  0.1678752  0.0853754  0.9906487    0.00000       Uiso       1.00
      C531          C  0.2382027  0.0269656  0.9327804    0.00000       Uiso       1.00
      C532          C  0.2257044  0.0425650  0.9223347    0.00000       Uiso       1.00
      C533          C  0.2499532  0.9984480  0.0692487    0.00000       Uiso       1.00
      C534          C  0.2467498  0.0089038  0.0849268    0.00000       Uiso       1.00
      N139          N  0.2604107  0.0071527  0.9195798    0.00000       Uiso       1.00
      O277          O  0.2671216  0.0048334  0.9004031    0.00000       Uiso       1.00
      O278          O  0.2714956  0.9935951  0.9281768    0.00000       Uiso       1.00
      N140          N  0.2349542  0.0388606  0.8983399    0.00000       Uiso       1.00
      O279          O  0.2528234  0.0227167  0.8884292    0.00000       Uiso       1.00
      O280          O  0.2244991  0.0520344  0.8890222    0.00000       Uiso       1.00
      N141          N  0.1709736  0.0731787  0.0252024    0.00000       Uiso       1.00
      O281          O  0.1529678  0.0891489  0.0352301    0.00000       Uiso       1.00
      O282          O  0.1814638  0.0600010  0.0344854    0.00000       Uiso       1.00
      N142          N  0.1455676  0.1050527  0.0039474    0.00000       Uiso       1.00
      O283          O  0.1387122  0.1071488  0.0232323    0.00000       Uiso       1.00
      O284          O  0.1345460  0.1187256  0.9953205    0.00000       Uiso       1.00
      N143          N  0.2558479  0.9743500  0.0727308    0.00000       Uiso       1.00
      O285          O  0.2578838  0.9643222  0.0887009    0.00000       Uiso       1.00
      O286          O  0.2585363  0.9650666  0.0595526    0.00000       Uiso       1.00
      N144          N  0.2493800  0.9956050  0.1046048    0.00000       Uiso       1.00
      O287          O  0.2541395  0.9763200  0.1067007    0.00000       Uiso       1.00
      O288          O  0.2467282  0.0042321  0.1182773    0.00000       Uiso       1.00
      C535          C  0.6517217  0.6204592  0.3082200    0.00000       Uiso       1.00
      C536          C  0.6641058  0.6253586  0.2860297    0.00000       Uiso       1.00
      C537          C  0.6664799  0.6187207  0.2684042    0.00000       Uiso       1.00
      C538          C  0.6797642  0.6229389  0.2463407    0.00000       Uiso       1.00
      C539          C  0.6921760  0.6325940  0.2412641    0.00000       Uiso       1.00
      C540          C  0.6898152  0.6389148  0.2591949    0.00000       Uiso       1.00
      C541          C  0.6746280  0.6370896  0.2815166    0.00000       Uiso       1.00
      O289          O  0.6412396  0.6083220  0.3154635    0.00000       Uiso       1.00
      H145          H  0.7008224  0.6440507  0.2558320    0.00000       Uiso       1.00
      C542          C  0.7103234  0.7229981  0.2944372    0.00000       Uiso       1.00
      C543          C  0.7005217  0.7106196  0.2993462    0.00000       Uiso       1.00
      C544          C  0.6853271  0.7082590  0.3212533    0.00000       Uiso       1.00
      C545          C  0.6763799  0.6950845  0.3258822    0.00000       Uiso       1.00
      C546          C  0.6835394  0.6827820  0.3088999    0.00000       Uiso       1.00
      C547          C  0.6991488  0.6850825  0.2869987    0.00000       Uiso       1.00
      C548          C  0.7064312  0.7001587  0.2816467    0.00000       Uiso       1.00
      O290          O  0.7069651  0.7334905  0.3098920    0.00000       Uiso       1.00
      H146          H  0.6803054  0.7168440  0.3347021    0.00000       Uiso       1.00
      H147          H  0.6639966  0.6945300  0.3428515    0.00000       Uiso       1.00
      H148          H  0.7066844  0.6741412  0.2742092    0.00000       Uiso       1.00
      C549          C  0.7549356  0.6645213  0.1471913    0.00000       Uiso       1.00
      C550          C  0.7500652  0.6743065  0.1644487    0.00000       Uiso       1.00
      C551          C  0.7567973  0.6894917  0.1600845    0.00000       Uiso       1.00
      C552          C  0.7525092  0.6984290  0.1775604    0.00000       Uiso       1.00
      C553          C  0.7426889  0.6912692  0.1996843    0.00000       Uiso       1.00
      C554          C  0.7363672  0.6756783  0.2036816    0.00000       Uiso       1.00
      C555          C  0.7382756  0.6684121  0.1866816    0.00000       Uiso       1.00
      O291          O  0.7669776  0.6679922  0.1246190    0.00000       Uiso       1.00
      H149          H  0.7652181  0.6944998  0.1430673    0.00000       Uiso       1.00
      H150          H  0.7571176  0.7107987  0.1735066    0.00000       Uiso       1.00
      H151          H  0.7311093  0.6681218  0.2198621    0.00000       Uiso       1.00
      C556          C  0.7484146  0.6495152  0.1514252    0.00000       Uiso       1.00
      C557          C  0.7358493  0.6440608  0.1732497    0.00000       Uiso       1.00
      C558          C  0.7291225  0.6288400  0.1776772    0.00000       Uiso       1.00
      C559          C  0.7157604  0.6244261  0.1996030    0.00000       Uiso       1.00
      C560          C  0.7075720  0.6361845  0.2175858    0.00000       Uiso       1.00
      C561          C  0.7142562  0.6516654  0.2128091    0.00000       Uiso       1.00
      C562          C  0.7296888  0.6545108  0.1911323    0.00000       Uiso       1.00
      O292          O  0.7550169  0.6416005  0.1321117    0.00000       Uiso       1.00
      H152          H  0.7064029  0.6625313  0.2258102    0.00000       Uiso       1.00
      C563          C  0.7253057  0.7252744  0.2729183    0.00000       Uiso       1.00
      C564          C  0.7307559  0.7160192  0.2549140    0.00000       Uiso       1.00
      C565          C  0.7459683  0.7183766  0.2330174    0.00000       Uiso       1.00
      C566          C  0.7505409  0.7097014  0.2151778    0.00000       Uiso       1.00
      C567          C  0.7389069  0.6997591  0.2186944    0.00000       Uiso       1.00
      C568          C  0.7233562  0.6979007  0.2408417    0.00000       Uiso       1.00
      C569          C  0.7203711  0.7042558  0.2591586    0.00000       Uiso       1.00
      O293          O  0.7333509  0.7379072  0.2714896    0.00000       Uiso       1.00
      H153          H  0.7544174  0.7267987  0.2298677    0.00000       Uiso       1.00
      H154          H  0.7631012  0.7110285  0.1986926    0.00000       Uiso       1.00
      H155          H  0.7125610  0.6926515  0.2438259    0.00000       Uiso       1.00
      C570          C  0.6495000  0.6269801  0.3254648    0.00000       Uiso       1.00
      C571          C  0.6587612  0.6395223  0.3216685    0.00000       Uiso       1.00
      C572          C  0.6564149  0.6461911  0.3392427    0.00000       Uiso       1.00
      C573          C  0.6650932  0.6594516  0.3351605    0.00000       Uiso       1.00
      C574          C  0.6750370  0.6675675  0.3135944    0.00000       Uiso       1.00
      C575          C  0.6768934  0.6609706  0.2961826    0.00000       Uiso       1.00
      C576          C  0.6705251  0.6456496  0.2995461    0.00000       Uiso       1.00
      O294          O  0.6369433  0.6203285  0.3461702    0.00000       Uiso       1.00
      H156          H  0.6479931  0.6408765  0.3560957    0.00000       Uiso       1.00
      H157          H  0.6637646  0.6633626  0.3490554    0.00000       Uiso       1.00
      H158          H  0.6821432  0.6687574  0.2801335    0.00000       Uiso       1.00
        B1          B  0.6319078  0.6084061  0.3395163    0.00000       Uiso       1.00
        B2          B  0.7216322  0.7429593  0.2950981    0.00000       Uiso       1.00
        B3          B  0.7668035  0.6533782  0.1152672    0.00000       Uiso       1.00
      H159          H  0.6579170  0.6104087  0.2716796    0.00000       Uiso       1.00
      H160          H  0.6803510  0.6183223  0.2333913    0.00000       Uiso       1.00
      H161          H  0.7343478  0.6201926  0.1641821    0.00000       Uiso       1.00
      H162          H  0.7117730  0.6119086  0.2022142    0.00000       Uiso       1.00
      C577          C  0.5804008  0.3795412  0.6917797    0.00000       Uiso       1.00
      C578          C  0.5754939  0.3746419  0.7139701    0.00000       Uiso       1.00
      C579          C  0.5536047  0.3812798  0.7315956    0.00000       Uiso       1.00
      C580          C  0.5490437  0.3770616  0.7536590    0.00000       Uiso       1.00
      C581          C  0.5660340  0.3674065  0.7587356    0.00000       Uiso       1.00
      C582          C  0.5879247  0.3610857  0.7408049    0.00000       Uiso       1.00
      C583          C  0.5932341  0.3629109  0.7184831    0.00000       Uiso       1.00
      O295          O  0.5650250  0.3916785  0.6845362    0.00000       Uiso       1.00
      H163          H  0.6007050  0.3559498  0.7441677    0.00000       Uiso       1.00
      C584          C  0.7277586  0.2770024  0.7055624    0.00000       Uiso       1.00
      C585          C  0.7104874  0.2893808  0.7006535    0.00000       Uiso       1.00
      C586          C  0.7148393  0.2917414  0.6787464    0.00000       Uiso       1.00
      C587          C  0.6973464  0.3049160  0.6741175    0.00000       Uiso       1.00
      C588          C  0.6752211  0.3172185  0.6910998    0.00000       Uiso       1.00
      C589          C  0.6712299  0.3149180  0.7130010    0.00000       Uiso       1.00
      C590          C  0.6882365  0.2998417  0.7183530    0.00000       Uiso       1.00
      O296          O  0.7503476  0.2665099  0.6901078    0.00000       Uiso       1.00
      H164          H  0.7318513  0.2831565  0.6652976    0.00000       Uiso       1.00
      H165          H  0.7013780  0.3054705  0.6571482    0.00000       Uiso       1.00
      H166          H  0.6550347  0.3258593  0.7257905    0.00000       Uiso       1.00
      C591          C  0.5666480  0.3354791  0.8528085    0.00000       Uiso       1.00
      C592          C  0.5888203  0.3256939  0.8355510    0.00000       Uiso       1.00
      C593          C  0.6063734  0.3105087  0.8399152    0.00000       Uiso       1.00
      C594          C  0.6284984  0.3015714  0.8224394    0.00000       Uiso       1.00
      C595          C  0.6336423  0.3087313  0.8003154    0.00000       Uiso       1.00
      C596          C  0.6157271  0.3243222  0.7963180    0.00000       Uiso       1.00
      C597          C  0.5933692  0.3315883  0.8133181    0.00000       Uiso       1.00
      O297          O  0.5595886  0.3320083  0.8753807    0.00000       Uiso       1.00
      H167          H  0.6027851  0.3055007  0.8569324    0.00000       Uiso       1.00
      H168          H  0.6414227  0.2892019  0.8264931    0.00000       Uiso       1.00
      H169          H  0.6190931  0.3318787  0.7801375    0.00000       Uiso       1.00
      C598          C  0.5493549  0.3504852  0.8485745    0.00000       Uiso       1.00
      C599          C  0.5531597  0.3559397  0.8267499    0.00000       Uiso       1.00
      C600          C  0.5356396  0.3711605  0.8223225    0.00000       Uiso       1.00
      C601          C  0.5397894  0.3755744  0.8003967    0.00000       Uiso       1.00
      C602          C  0.5613422  0.3638159  0.7824139    0.00000       Uiso       1.00
      C603          C  0.5787307  0.3483350  0.7871906    0.00000       Uiso       1.00
      C604          C  0.5753317  0.3454897  0.8088674    0.00000       Uiso       1.00
      O298          O  0.5287290  0.3584000  0.8678880    0.00000       Uiso       1.00
      H170          H  0.5947443  0.3374691  0.7741895    0.00000       Uiso       1.00
      C605          C  0.7234983  0.2747261  0.7270814    0.00000       Uiso       1.00
      C606          C  0.7016889  0.2839813  0.7450858    0.00000       Uiso       1.00
      C607          C  0.6973623  0.2816238  0.7669823    0.00000       Uiso       1.00
      C608          C  0.6754199  0.2902991  0.7848219    0.00000       Uiso       1.00
      C609          C  0.6573603  0.3002414  0.7813054    0.00000       Uiso       1.00
      C610          C  0.6620985  0.3020998  0.7591580    0.00000       Uiso       1.00
      C611          C  0.6837854  0.2957447  0.7408411    0.00000       Uiso       1.00
      O299          O  0.7427477  0.2620932  0.7285101    0.00000       Uiso       1.00
      H171          H  0.7110837  0.2732018  0.7701320    0.00000       Uiso       1.00
      H172          H  0.6728221  0.2889720  0.8013071    0.00000       Uiso       1.00
      H173          H  0.6490383  0.3073490  0.7561738    0.00000       Uiso       1.00
      C612          C  0.6019449  0.3730204  0.6745349    0.00000       Uiso       1.00
      C613          C  0.6199519  0.3604782  0.6783313    0.00000       Uiso       1.00
      C614          C  0.6418486  0.3538094  0.6607570    0.00000       Uiso       1.00
      C615          C  0.6597052  0.3405489  0.6648392    0.00000       Uiso       1.00
      C616          C  0.6561989  0.3324329  0.6864054    0.00000       Uiso       1.00
      C617          C  0.6340466  0.3390298  0.7038171    0.00000       Uiso       1.00
      C618          C  0.6157207  0.3543509  0.7004536    0.00000       Uiso       1.00
      O300          O  0.6034420  0.3796719  0.6538295    0.00000       Uiso       1.00
      H174          H  0.6449652  0.3591240  0.6439040    0.00000       Uiso       1.00
      H175          H  0.6761824  0.3366379  0.6509444    0.00000       Uiso       1.00
      H176          H  0.6310341  0.3312430  0.7198662    0.00000       Uiso       1.00
        B4          B  0.5798301  0.3915944  0.6604835    0.00000       Uiso       1.00
        B5          B  0.7596895  0.2570412  0.7049016    0.00000       Uiso       1.00
        B6          B  0.5354487  0.3466222  0.8847326    0.00000       Uiso       1.00
      H177          H  0.5400051  0.3895918  0.7283202    0.00000       Uiso       1.00
      H178          H  0.5320646  0.3816782  0.7666084    0.00000       Uiso       1.00
      H179          H  0.5187224  0.3798078  0.8358176    0.00000       Uiso       1.00
      H180          H  0.5258957  0.3880918  0.7977855    0.00000       Uiso       1.00
      C619          C  0.5957462  0.1472405  0.3375277    0.00000       Uiso       1.00
      C620          C  0.5818399  0.1645064  0.3292527    0.00000       Uiso       1.00
      C621          C  0.5752478  0.1601853  0.3182763    0.00000       Uiso       1.00
      C622          C  0.5622072  0.1776719  0.3091898    0.00000       Uiso       1.00
      C623          C  0.5566283  0.1997326  0.3096621    0.00000       Uiso       1.00
      C624          C  0.5636624  0.2037021  0.3205477    0.00000       Uiso       1.00
      C625          C  0.5746974  0.1867255  0.3318503    0.00000       Uiso       1.00
      O301          O  0.6046748  0.1246754  0.3357547    0.00000       Uiso       1.00
      H181          H  0.5801798  0.1431988  0.3169001    0.00000       Uiso       1.00
      H182          H  0.5567471  0.1736917  0.3016753    0.00000       Uiso       1.00
      H183          H  0.5617218  0.2198352  0.3191234    0.00000       Uiso       1.00
      C626          C  0.5374463  0.3082356  0.3820262    0.00000       Uiso       1.00
      C627          C  0.5457313  0.2860579  0.3786505    0.00000       Uiso       1.00
      C628          C  0.5567155  0.2684945  0.3895531    0.00000       Uiso       1.00
      C629          C  0.5658119  0.2463714  0.3850917    0.00000       Uiso       1.00
      C630          C  0.5653417  0.2412644  0.3686052    0.00000       Uiso       1.00
      C631          C  0.5544482  0.2591790  0.3576126    0.00000       Uiso       1.00
      C632          C  0.5431358  0.2815116  0.3635687    0.00000       Uiso       1.00
      O302          O  0.5392159  0.3153919  0.3956699    0.00000       Uiso       1.00
      H184          H  0.5580900  0.2720518  0.4016110    0.00000       Uiso       1.00
      H185          H  0.5733323  0.2334006  0.3945236    0.00000       Uiso       1.00
      H186          H  0.5558740  0.2558146  0.3434178    0.00000       Uiso       1.00
      C633          C  0.4929540  0.2944143  0.2792986    0.00000       Uiso       1.00
      C634          C  0.4963275  0.2993253  0.2931971    0.00000       Uiso       1.00
      C635          C  0.4854152  0.3212073  0.2997911    0.00000       Uiso       1.00
      C636          C  0.4898747  0.3258441  0.3128240    0.00000       Uiso       1.00
      C637          C  0.5063689  0.3088948  0.3183931    0.00000       Uiso       1.00
      C638          C  0.5173712  0.2870138  0.3113573    0.00000       Uiso       1.00
      C639          C  0.5114172  0.2816548  0.3003298    0.00000       Uiso       1.00
      O303          O  0.4793034  0.3098213  0.2703802    0.00000       Uiso       1.00
      H187          H  0.4733510  0.3346349  0.2948666    0.00000       Uiso       1.00
      H188          H  0.4804352  0.3427922  0.3182857    0.00000       Uiso       1.00
      H189          H  0.5315717  0.2742511  0.3132906    0.00000       Uiso       1.00
      C640          C  0.5040433  0.2729615  0.2724470    0.00000       Uiso       1.00
      C641          C  0.5181243  0.2549547  0.2801723    0.00000       Uiso       1.00
      C642          C  0.5290289  0.2330641  0.2736059    0.00000       Uiso       1.00
      C643          C  0.5421611  0.2152113  0.2824171    0.00000       Uiso       1.00
      C644          C  0.5435665  0.2187307  0.2990340    0.00000       Uiso       1.00
      C645          C  0.5322496  0.2408735  0.3056140    0.00000       Uiso       1.00
      C646          C  0.5209565  0.2591830  0.2952361    0.00000       Uiso       1.00
      O304          O  0.4989815  0.2715713  0.2582543    0.00000       Uiso       1.00
      H190          H  0.5273740  0.2299249  0.2615440    0.00000       Uiso       1.00
      H191          H  0.5509802  0.1987096  0.2762321    0.00000       Uiso       1.00
      H192          H  0.5310723  0.2438690  0.3198192    0.00000       Uiso       1.00
      C647          C  0.5270683  0.3254510  0.3709466    0.00000       Uiso       1.00
      C648          C  0.5231282  0.3216563  0.3568735    0.00000       Uiso       1.00
      C649          C  0.5121275  0.3392090  0.3459788    0.00000       Uiso       1.00
      C650          C  0.5073932  0.3351222  0.3328543    0.00000       Uiso       1.00
      C651          C  0.5123191  0.3135833  0.3314469    0.00000       Uiso       1.00
      C652          C  0.5231597  0.2961770  0.3427541    0.00000       Uiso       1.00
      C653          C  0.5301892  0.2995364  0.3540393    0.00000       Uiso       1.00
      O305          O  0.5206184  0.3460903  0.3760089    0.00000       Uiso       1.00
      H193          H  0.5073328  0.3560619  0.3476356    0.00000       Uiso       1.00
      H194          H  0.4996992  0.3489906  0.3240427    0.00000       Uiso       1.00
      H195          H  0.5249795  0.2801541  0.3439300    0.00000       Uiso       1.00
      C654          C  0.6025963  0.1514809  0.3478980    0.00000       Uiso       1.00
      C655          C  0.5948614  0.1732837  0.3518400    0.00000       Uiso       1.00
      C656          C  0.6014261  0.1776248  0.3628327    0.00000       Uiso       1.00
      C657          C  0.5926051  0.1995643  0.3675689    0.00000       Uiso       1.00
      C658          C  0.5759801  0.2175792  0.3626529    0.00000       Uiso       1.00
      C659          C  0.5694018  0.2128395  0.3518201    0.00000       Uiso       1.00
      C660          C  0.5797894  0.1911731  0.3447890    0.00000       Uiso       1.00
      O306          O  0.6167979  0.1322325  0.3543385    0.00000       Uiso       1.00
      H196          H  0.6134943  0.1639139  0.3676198    0.00000       Uiso       1.00
      H197          H  0.5987890  0.2022014  0.3752564    0.00000       Uiso       1.00
      H198          H  0.5551906  0.2258610  0.3500076    0.00000       Uiso       1.00
        B7          B  0.6180049  0.1153079  0.3465160    0.00000       Uiso       1.00
        B8          B  0.5284438  0.3394784  0.3917240    0.00000       Uiso       1.00
        B9          B  0.4832558  0.2951048  0.2570547    0.00000       Uiso       1.00
      C661          C  0.0805142  0.8527600  0.6624720    0.00000       Uiso       1.00
      C662          C  0.0755988  0.8354940  0.6707470    0.00000       Uiso       1.00
      C663          C  0.0537090  0.8398152  0.6817234    0.00000       Uiso       1.00
      C664          C  0.0490686  0.8223286  0.6908099    0.00000       Uiso       1.00
      C665          C  0.0660229  0.8002678  0.6903376    0.00000       Uiso       1.00
      C666          C  0.0879120  0.7962983  0.6794520    0.00000       Uiso       1.00
      C667          C  0.0932730  0.8132749  0.6681494    0.00000       Uiso       1.00
      O307          O  0.0651046  0.8753251  0.6642450    0.00000       Uiso       1.00
      H199          H  0.0402785  0.8568016  0.6830996    0.00000       Uiso       1.00
      H200          H  0.0321139  0.8263088  0.6983244    0.00000       Uiso       1.00
      H201          H  0.1006803  0.7801653  0.6808763    0.00000       Uiso       1.00
      C668          C  0.2277079  0.6917648  0.6179735    0.00000       Uiso       1.00
      C669          C  0.2104395  0.7139425  0.6213492    0.00000       Uiso       1.00
      C670          C  0.2147629  0.7315060  0.6104466    0.00000       Uiso       1.00
      C671          C  0.1972747  0.7536291  0.6149080    0.00000       Uiso       1.00
      C672          C  0.1752111  0.7587361  0.6313945    0.00000       Uiso       1.00
      C673          C  0.1712396  0.7408215  0.6423871    0.00000       Uiso       1.00
      C674          C  0.1882159  0.7184889  0.6364309    0.00000       Uiso       1.00
      O308          O  0.2502776  0.6846085  0.6043298    0.00000       Uiso       1.00
      H202          H  0.2317527  0.7279486  0.5983887    0.00000       Uiso       1.00
      H203          H  0.2012563  0.7665999  0.6054761    0.00000       Uiso       1.00
      H204          H  0.1551062  0.7441859  0.6565820    0.00000       Uiso       1.00
      C675          C  0.0666666  0.7055862  0.7207012    0.00000       Uiso       1.00
      C676          C  0.0888498  0.7006751  0.7068025    0.00000       Uiso       1.00
      C677          C  0.1064134  0.6787931  0.7002085    0.00000       Uiso       1.00
      C678          C  0.1285426  0.6741563  0.6871757    0.00000       Uiso       1.00
      C679          C  0.1336566  0.6911057  0.6816066    0.00000       Uiso       1.00
      C680          C  0.1157420  0.7129867  0.6886424    0.00000       Uiso       1.00
      C681          C  0.0934017  0.7183456  0.6996698    0.00000       Uiso       1.00
      O309          O  0.0595047  0.6901791  0.7296195    0.00000       Uiso       1.00
      H205          H  0.1028522  0.6653656  0.7051331    0.00000       Uiso       1.00
      H206          H  0.1415128  0.6572083  0.6817141    0.00000       Uiso       1.00
      H207          H  0.1191133  0.7257493  0.6867091    0.00000       Uiso       1.00
      C682          C  0.0494516  0.7270390  0.7275527    0.00000       Uiso       1.00
      C683          C  0.0532510  0.7450458  0.7198274    0.00000       Uiso       1.00
      C684          C  0.0356986  0.7669364  0.7263938    0.00000       Uiso       1.00
      C685          C  0.0397893  0.7847891  0.7175826    0.00000       Uiso       1.00
      C686          C  0.0613311  0.7812697  0.7009656    0.00000       Uiso       1.00
      C687          C  0.0787370  0.7591269  0.6943856    0.00000       Uiso       1.00
      C688          C  0.0753754  0.7408174  0.7047637    0.00000       Uiso       1.00
      O310          O  0.0288069  0.7284292  0.7417454    0.00000       Uiso       1.00
      H208          H  0.0188426  0.7700756  0.7384558    0.00000       Uiso       1.00
      H209          H  0.0259217  0.8012909  0.7237676    0.00000       Uiso       1.00
      H210          H  0.0947604  0.7561314  0.6801805    0.00000       Uiso       1.00
      C689          C  0.2234657  0.6745495  0.6290532    0.00000       Uiso       1.00
      C690          C  0.2016579  0.6783441  0.6431261    0.00000       Uiso       1.00
      C691          C  0.1973151  0.6607915  0.6540209    0.00000       Uiso       1.00
      C692          C  0.1753696  0.6648782  0.6671454    0.00000       Uiso       1.00
      C693          C  0.1573492  0.6864171  0.6685528    0.00000       Uiso       1.00
      C694          C  0.1620906  0.7038234  0.6572456    0.00000       Uiso       1.00
      C695          C  0.1837647  0.7004641  0.6459604    0.00000       Uiso       1.00
      O311          O  0.2427174  0.6539102  0.6239908    0.00000       Uiso       1.00
      H211          H  0.2110302  0.6439385  0.6523641    0.00000       Uiso       1.00
      H212          H  0.1727324  0.6510099  0.6759569    0.00000       Uiso       1.00
      H213          H  0.1490635  0.7198463  0.6560697    0.00000       Uiso       1.00
      C696          C  0.1019749  0.8485196  0.6521017    0.00000       Uiso       1.00
      C697          C  0.1199848  0.8267168  0.6481597    0.00000       Uiso       1.00
      C698          C  0.1418834  0.8223757  0.6371670    0.00000       Uiso       1.00
      C699          C  0.1597381  0.8004362  0.6324309    0.00000       Uiso       1.00
      C700          C  0.1562120  0.7824213  0.6373469    0.00000       Uiso       1.00
      C701          C  0.1340612  0.7871610  0.6481796    0.00000       Uiso       1.00
      C702          C  0.1157512  0.8088274  0.6552107    0.00000       Uiso       1.00
      O312          O  0.1033686  0.8677680  0.6456612    0.00000       Uiso       1.00
      H214          H  0.1450278  0.8360866  0.6323799    0.00000       Uiso       1.00
      H215          H  0.1762466  0.7977991  0.6247433    0.00000       Uiso       1.00
      H216          H  0.1310590  0.7741395  0.6499920    0.00000       Uiso       1.00
       B10          B  0.0798286  0.8846925  0.6534837    0.00000       Uiso       1.00
       B11          B  0.2596460  0.6605220  0.6082757    0.00000       Uiso       1.00
       B12          B  0.0354151  0.7048956  0.7429451    0.00000       Uiso       1.00
      C703          C  0.9952409  0.3530172  0.8347840    0.00000       Uiso       1.00
      C704          C  0.0001283  0.3357437  0.8249723    0.00000       Uiso       1.00
      C705          C  0.9934726  0.3400153  0.8097327    0.00000       Uiso       1.00
      C706          C  0.9976789  0.3225227  0.8009475    0.00000       Uiso       1.00
      C707          C  0.0073395  0.3004581  0.8082653    0.00000       Uiso       1.00
      C708          C  0.0136780  0.2964901  0.8238238    0.00000       Uiso       1.00
      C709          C  0.0118652  0.3134925  0.8309635    0.00000       Uiso       1.00
      O313          O  0.9831002  0.3756332  0.8315625    0.00000       Uiso       1.00
      H217          H  0.0188182  0.2803485  0.8314551    0.00000       Uiso       1.00
      C710          C  0.0978397  0.1918829  0.8794649    0.00000       Uiso       1.00
      C711          C  0.0854557  0.2140609  0.8745899    0.00000       Uiso       1.00
      C712          C  0.0831068  0.2316063  0.8813082    0.00000       Uiso       1.00
      C713          C  0.0699265  0.2537259  0.8770077    0.00000       Uiso       1.00
      C714          C  0.0576065  0.2588766  0.8671971    0.00000       Uiso       1.00
      C715          C  0.0598954  0.2409764  0.8608992    0.00000       Uiso       1.00
      C716          C  0.0749769  0.2186202  0.8628118    0.00000       Uiso       1.00
      O314          O  0.1083491  0.1847418  0.8915481    0.00000       Uiso       1.00
      H218          H  0.0917053  0.2280371  0.8897262    0.00000       Uiso       1.00
      H219          H  0.0693814  0.2666561  0.8815978    0.00000       Uiso       1.00
      H220          H  0.0489412  0.2443878  0.8556540    0.00000       Uiso       1.00
      C717          C  0.0392251  0.2058132  0.7769094    0.00000       Uiso       1.00
      C718          C  0.0490279  0.2008907  0.7892843    0.00000       Uiso       1.00
      C719          C  0.0642191  0.1789753  0.7916346    0.00000       Uiso       1.00
      C720          C  0.0731740  0.1743184  0.8048103    0.00000       Uiso       1.00
      C721          C  0.0660264  0.1912886  0.8171192    0.00000       Uiso       1.00
      C722          C  0.0504292  0.2131994  0.8148128    0.00000       Uiso       1.00
      C723          C  0.0431455  0.2185647  0.7997336    0.00000       Uiso       1.00
      O315          O  0.0426827  0.1903104  0.7663753    0.00000       Uiso       1.00
      H221          H  0.0692179  0.1655540  0.7830338    0.00000       Uiso       1.00
      H222          H  0.0855476  0.1573421  0.8053516    0.00000       Uiso       1.00
      H223          H  0.0428815  0.2260066  0.8257396    0.00000       Uiso       1.00
      C724          C  0.0242131  0.2273384  0.7746397    0.00000       Uiso       1.00
      C725          C  0.0187702  0.2453483  0.7839053    0.00000       Uiso       1.00
      C726          C  0.0035435  0.2672939  0.7816237    0.00000       Uiso       1.00
      C727          C  0.9991412  0.2850602  0.7901935    0.00000       Uiso       1.00
      C728          C  0.0109173  0.2814821  0.7999767    0.00000       Uiso       1.00
      C729          C  0.0264040  0.2593190  0.8018665    0.00000       Uiso       1.00
      C730          C  0.0292380  0.2410509  0.7956156    0.00000       Uiso       1.00
      O316          O  0.0162806  0.2286594  0.7619383    0.00000       Uiso       1.00
      H224          H  0.0372828  0.2563007  0.8070058    0.00000       Uiso       1.00
      C731          C  0.1001045  0.1746339  0.8729225    0.00000       Uiso       1.00
      C732          C  0.0908315  0.1784470  0.8603798    0.00000       Uiso       1.00
      C733          C  0.0931772  0.1608868  0.8536897    0.00000       Uiso       1.00
      C734          C  0.0844841  0.1649976  0.8404343    0.00000       Uiso       1.00
      C735          C  0.0745354  0.1865721  0.8323347    0.00000       Uiso       1.00
      C736          C  0.0726889  0.2039715  0.8389369    0.00000       Uiso       1.00
      C737          C  0.0790619  0.2005932  0.8542576    0.00000       Uiso       1.00
      O317          O  0.1127453  0.1539566  0.8795210    0.00000       Uiso       1.00
      H225          H  0.1016039  0.1440172  0.8589754    0.00000       Uiso       1.00
      H226          H  0.0858027  0.1511176  0.8365043    0.00000       Uiso       1.00
      H227          H  0.0674353  0.2200144  0.8311390    0.00000       Uiso       1.00
      C738          C  0.0017792  0.3487103  0.8497957    0.00000       Uiso       1.00
      C739          C  0.0143278  0.3269086  0.8552427    0.00000       Uiso       1.00
      C740          C  0.0210143  0.3225783  0.8704588    0.00000       Uiso       1.00
      C741          C  0.0342809  0.3006414  0.8750371    0.00000       Uiso       1.00
      C742          C  0.0423857  0.2825913  0.8634083    0.00000       Uiso       1.00
      C743          C  0.0357711  0.2873395  0.8478650    0.00000       Uiso       1.00
      C744          C  0.0204434  0.3090273  0.8448780    0.00000       Uiso       1.00
      O318          O  0.9951376  0.3679093  0.8579522    0.00000       Uiso       1.00
      H228          H  0.0157085  0.3363072  0.8788949    0.00000       Uiso       1.00
      H229          H  0.0382055  0.2980528  0.8875949    0.00000       Uiso       1.00
      H230          H  0.0435493  0.2743101  0.8370612    0.00000       Uiso       1.00
       B13          B  0.9832016  0.3848703  0.8462809    0.00000       Uiso       1.00
       B14          B  0.1178154  0.1606126  0.8914063    0.00000       Uiso       1.00
       B15          B  0.0280538  0.2051026  0.7568668    0.00000       Uiso       1.00
      H231          H  0.9851561  0.3568887  0.8044587    0.00000       Uiso       1.00
      H232          H  0.9930491  0.3265582  0.7885945    0.00000       Uiso       1.00
      H233          H  0.9948823  0.2707221  0.7733629    0.00000       Uiso       1.00
      H234          H  0.9866185  0.3015638  0.7888309    0.00000       Uiso       1.00
      C745          C  0.5218117  0.8821980  0.8085768    0.00000       Uiso       1.00
      C746          C  0.5390716  0.8788422  0.7863961    0.00000       Uiso       1.00
      C747          C  0.5347358  0.8897603  0.7688422    0.00000       Uiso       1.00
      C748          C  0.5522164  0.8853183  0.7467152    0.00000       Uiso       1.00
      C749          C  0.5742850  0.8688362  0.7415937    0.00000       Uiso       1.00
      C750          C  0.5782691  0.8578278  0.7594986    0.00000       Uiso       1.00
      C751          C  0.5612999  0.8637643  0.7818365    0.00000       Uiso       1.00
      O319          O  0.4992388  0.8958354  0.8157452    0.00000       Uiso       1.00
      H235          H  0.5177428  0.9018154  0.7724094    0.00000       Uiso       1.00
      H236          H  0.5482252  0.8947619  0.7337525    0.00000       Uiso       1.00
      H237          H  0.5944073  0.8436359  0.7561218    0.00000       Uiso       1.00
      C752          C  0.6828925  0.7794830  0.7946635    0.00000       Uiso       1.00
      C753          C  0.6607056  0.7933772  0.7995868    0.00000       Uiso       1.00
      C754          C  0.6431490  0.7999515  0.8214746    0.00000       Uiso       1.00
      C755          C  0.6210160  0.8129803  0.8261232    0.00000       Uiso       1.00
      C756          C  0.6158918  0.8185648  0.8091789    0.00000       Uiso       1.00
      C757          C  0.6337997  0.8115487  0.7872915    0.00000       Uiso       1.00
      C758          C  0.6561427  0.8005257  0.7819226    0.00000       Uiso       1.00
      O320          O  0.6900650  0.7705509  0.8100628    0.00000       Uiso       1.00
      H238          H  0.6467193  0.7950143  0.8348972    0.00000       Uiso       1.00
      H239          H  0.6080512  0.8184265  0.8430761    0.00000       Uiso       1.00
      H240          H  0.6304218  0.8134935  0.7745305    0.00000       Uiso       1.00
      C759          C  0.6689533  0.8378423  0.6475418    0.00000       Uiso       1.00
      C760          C  0.6738805  0.8295517  0.6648001    0.00000       Uiso       1.00
      C761          C  0.6957734  0.8185791  0.6604690    0.00000       Uiso       1.00
      C762          C  0.7004258  0.8094769  0.6779475    0.00000       Uiso       1.00
      C763          C  0.6834813  0.8099296  0.7000087    0.00000       Uiso       1.00
      C764          C  0.6615891  0.8208115  0.7039880    0.00000       Uiso       1.00
      C765          C  0.6562153  0.8321293  0.6870216    0.00000       Uiso       1.00
      O321          O  0.6843533  0.8360899  0.6249751    0.00000       Uiso       1.00
      H241          H  0.7091971  0.8172179  0.6434813    0.00000       Uiso       1.00
      H242          H  0.7173821  0.8019660  0.6739605    0.00000       Uiso       1.00
      H243          H  0.6488288  0.8193727  0.7201198    0.00000       Uiso       1.00
      C766          C  0.6474898  0.8482089  0.6517919    0.00000       Uiso       1.00
      C767          C  0.6294881  0.8521313  0.6735981    0.00000       Uiso       1.00
      C768          C  0.6075867  0.8631203  0.6779490    0.00000       Uiso       1.00
      C769          C  0.5897397  0.8678369  0.6998928    0.00000       Uiso       1.00
      C770          C  0.5932761  0.8629047  0.7179033    0.00000       Uiso       1.00
      C771          C  0.6154297  0.8520758  0.7131538    0.00000       Uiso       1.00
      C772          C  0.6337332  0.8450640  0.6914811    0.00000       Uiso       1.00
      O322          O  0.6460840  0.8546672  0.6325495    0.00000       Uiso       1.00
      H244          H  0.6044346  0.8679197  0.6642420    0.00000       Uiso       1.00
      H245          H  0.5732290  0.8755223  0.7025365    0.00000       Uiso       1.00
      H246          H  0.6184387  0.8502513  0.7261736    0.00000       Uiso       1.00
      C773          C  0.7001011  0.7726505  0.7732047    0.00000       Uiso       1.00
      C774          C  0.6962903  0.7803916  0.7552048    0.00000       Uiso       1.00
      C775          C  0.7138363  0.7738445  0.7333083    0.00000       Uiso       1.00
      C776          C  0.7097338  0.7826714  0.7154633    0.00000       Uiso       1.00
      C777          C  0.6881862  0.7992850  0.7189973    0.00000       Uiso       1.00
      C778          C  0.6707870  0.8058456  0.7411459    0.00000       Uiso       1.00
      C779          C  0.6741612  0.7954517  0.7594463    0.00000       Uiso       1.00
      O323          O  0.7207513  0.7584589  0.7718021    0.00000       Uiso       1.00
      H247          H  0.7306961  0.7617854  0.7301590    0.00000       Uiso       1.00
      H248          H  0.7235970  0.7765009  0.6989562    0.00000       Uiso       1.00
      H249          H  0.6547589  0.8200482  0.7441539    0.00000       Uiso       1.00
      C780          C  0.5260663  0.8711030  0.8257825    0.00000       Uiso       1.00
      C781          C  0.5478789  0.8570333  0.8219753    0.00000       Uiso       1.00
      C782          C  0.5522347  0.8461226  0.8395180    0.00000       Uiso       1.00
      C783          C  0.5741844  0.8330019  0.8354194    0.00000       Uiso       1.00
      C784          C  0.5921955  0.8316143  0.8138793    0.00000       Uiso       1.00
      C785          C  0.5874410  0.8429371  0.7964832    0.00000       Uiso       1.00
      C786          C  0.5657633  0.8542190  0.7998528    0.00000       Uiso       1.00
      O324          O  0.5068213  0.8761470  0.8464262    0.00000       Uiso       1.00
      H250          H  0.5385273  0.8477632  0.8563727    0.00000       Uiso       1.00
      H251          H  0.5768322  0.8241776  0.8492794    0.00000       Uiso       1.00
      H252          H  0.6004604  0.8441275  0.7804614    0.00000       Uiso       1.00
       B16          B  0.4898827  0.8918680  0.8398284    0.00000       Uiso       1.00
       B17          B  0.7141541  0.7572384  0.7953345    0.00000       Uiso       1.00
       B18          B  0.6696200  0.8468599  0.6156176    0.00000       Uiso       1.00
      C787          C  0.0223347  0.7947885  0.2231124    0.00000       Uiso       1.00
      C788          C  0.0396149  0.7997086  0.2107261    0.00000       Uiso       1.00
      C789          C  0.0353471  0.8215970  0.2083549    0.00000       Uiso       1.00
      C790          C  0.0528455  0.8261718  0.1950688    0.00000       Uiso       1.00
      C791          C  0.0749112  0.8091969  0.1826527    0.00000       Uiso       1.00
      C792          C  0.0788750  0.7873068  0.1850107    0.00000       Uiso       1.00
      C793          C  0.0618686  0.7819831  0.2001987    0.00000       Uiso       1.00
      O325          O  0.9997147  0.8101494  0.2335999    0.00000       Uiso       1.00
      H253          H  0.0950155  0.7745388  0.1740012    0.00000       Uiso       1.00
      C794          C  0.1834950  0.6475289  0.1644649    0.00000       Uiso       1.00
      C795          C  0.1613137  0.6647858  0.1742721    0.00000       Uiso       1.00
      C796          C  0.1437642  0.6604193  0.1894678    0.00000       Uiso       1.00
      C797          C  0.1216406  0.6778983  0.1984208    0.00000       Uiso       1.00
      C798          C  0.1164889  0.7000245  0.1912669    0.00000       Uiso       1.00
      C799          C  0.1343928  0.7040307  0.1756564    0.00000       Uiso       1.00
      C800          C  0.1567550  0.6870373  0.1683673    0.00000       Uiso       1.00
      O326          O  0.1906354  0.6249417  0.1678184    0.00000       Uiso       1.00
      H254          H  0.1473335  0.6434066  0.1944856    0.00000       Uiso       1.00
      H255          H  0.1087081  0.6738554  0.2108043    0.00000       Uiso       1.00
      H256          H  0.1309789  0.7202277  0.1681257    0.00000       Uiso       1.00
      C801          C  0.1695843  0.8086532  0.1198790    0.00000       Uiso       1.00
      C802          C  0.1745058  0.7864810  0.1247449    0.00000       Uiso       1.00
      C803          C  0.1964269  0.7689406  0.1180060    0.00000       Uiso       1.00
      C804          C  0.2010819  0.7468158  0.1222902    0.00000       Uiso       1.00
      C805          C  0.1841030  0.7416600  0.1321136    0.00000       Uiso       1.00
      C806          C  0.1621863  0.7595626  0.1384423    0.00000       Uiso       1.00
      C807          C  0.1568245  0.7819188  0.1365371    0.00000       Uiso       1.00
      O327          O  0.1850934  0.8157249  0.1078354    0.00000       Uiso       1.00
      H257          H  0.2098543  0.7725387  0.1095830    0.00000       Uiso       1.00
      H258          H  0.2180634  0.7339012  0.1176762    0.00000       Uiso       1.00
      H259          H  0.1493708  0.7561885  0.1437036    0.00000       Uiso       1.00
      C808          C  0.1480535  0.8259338  0.1264066    0.00000       Uiso       1.00
      C809          C  0.1300370  0.8221152  0.1389743    0.00000       Uiso       1.00
      C810          C  0.1080856  0.8396226  0.1457079    0.00000       Uiso       1.00
      C811          C  0.0903135  0.8354588  0.1590720    0.00000       Uiso       1.00
      C812          C  0.0938925  0.8139039  0.1672551    0.00000       Uiso       1.00
      C813          C  0.1160616  0.7965284  0.1605640    0.00000       Uiso       1.00
      C814          C  0.1343338  0.7999424  0.1451302    0.00000       Uiso       1.00
      O328          O  0.1467346  0.8465620  0.1198079    0.00000       Uiso       1.00
      H260          H  0.1190826  0.7805126  0.1684124    0.00000       Uiso       1.00
      C815          C  0.2007480  0.6518037  0.1494816    0.00000       Uiso       1.00
      C816          C  0.1969363  0.6736138  0.1440356    0.00000       Uiso       1.00
      C817          C  0.2145006  0.6779550  0.1288221    0.00000       Uiso       1.00
      C818          C  0.2103918  0.6998976  0.1242535    0.00000       Uiso       1.00
      C819          C  0.1888165  0.7179424  0.1358918    0.00000       Uiso       1.00
      C820          C  0.1714133  0.7131895  0.1514433    0.00000       Uiso       1.00
      C821          C  0.1747876  0.6915027  0.1544256    0.00000       Uiso       1.00
      O329          O  0.2214280  0.6325672  0.1414308    0.00000       Uiso       1.00
      H261          H  0.2313716  0.6642451  0.1203693    0.00000       Uiso       1.00
      H262          H  0.2242742  0.7025073  0.1116926    0.00000       Uiso       1.00
      H263          H  0.1553716  0.7262377  0.1622408    0.00000       Uiso       1.00
      C822          C  0.0266379  0.7732453  0.2253311    0.00000       Uiso       1.00
      C823          C  0.0484428  0.7552521  0.2160643    0.00000       Uiso       1.00
      C824          C  0.0527693  0.7333564  0.2184077    0.00000       Uiso       1.00
      C825          C  0.0747101  0.7155136  0.2097235    0.00000       Uiso       1.00
      C826          C  0.0927690  0.7190324  0.1997760    0.00000       Uiso       1.00
      C827          C  0.0880248  0.7411833  0.1979226    0.00000       Uiso       1.00
      C828          C  0.0663314  0.7594967  0.2042978    0.00000       Uiso       1.00
      O330          O  0.0074322  0.7717341  0.2378909    0.00000       Uiso       1.00
      H264          H  0.0390342  0.7302299  0.2268318    0.00000       Uiso       1.00
      H265          H  0.0772948  0.6990368  0.2110503    0.00000       Uiso       1.00
      H266          H  0.1010625  0.7442040  0.1926693    0.00000       Uiso       1.00
       B19          B  0.9904710  0.7953362  0.2429317    0.00000       Uiso       1.00
       B20          B  0.2147689  0.6156172  0.1531472    0.00000       Uiso       1.00
       B21          B  0.1702989  0.8398581  0.1080160    0.00000       Uiso       1.00
      H267          H  0.0184723  0.8351852  0.2169215    0.00000       Uiso       1.00
      H268          H  0.0488135  0.8431493  0.1944840    0.00000       Uiso       1.00
      H269          H  0.1046572  0.8565406  0.1404865    0.00000       Uiso       1.00
      H270          H  0.0738049  0.8493434  0.1630649    0.00000       Uiso       1.00
      C829          C  0.2125867  0.1178024  0.1914230    0.00000       Uiso       1.00
      C830          C  0.2043101  0.1211583  0.2136036    0.00000       Uiso       1.00
      C831          C  0.1933386  0.1102401  0.2311575    0.00000       Uiso       1.00
      C832          C  0.1842501  0.1146821  0.2532845    0.00000       Uiso       1.00
      C833          C  0.1847150  0.1311643  0.2584060    0.00000       Uiso       1.00
      C834          C  0.1955957  0.1421726  0.2405011    0.00000       Uiso       1.00
      C835          C  0.2069010  0.1362361  0.2181632    0.00000       Uiso       1.00
      O331          O  0.2108197  0.1041651  0.1842544    0.00000       Uiso       1.00
      H271          H  0.1919678  0.0981851  0.2275903    0.00000       Uiso       1.00
      H272          H  0.1767398  0.1052386  0.2662472    0.00000       Uiso       1.00
      H273          H  0.1941651  0.1563645  0.2438779    0.00000       Uiso       1.00
      C836          C  0.2570392  0.2205174  0.2053362    0.00000       Uiso       1.00
      C837          C  0.2536697  0.2066232  0.2004130    0.00000       Uiso       1.00
      C838          C  0.2645753  0.2000490  0.1785251    0.00000       Uiso       1.00
      C839          C  0.2601196  0.1870202  0.1738766    0.00000       Uiso       1.00
      C840          C  0.2436357  0.1814356  0.1908208    0.00000       Uiso       1.00
      C841          C  0.2326399  0.1884519  0.2127083    0.00000       Uiso       1.00
      C842          C  0.2385911  0.1994747  0.2180771    0.00000       Uiso       1.00
      O332          O  0.2706789  0.2294496  0.1899369    0.00000       Uiso       1.00
      H274          H  0.2766310  0.2049861  0.1651025    0.00000       Uiso       1.00
      H275          H  0.2695541  0.1815739  0.1569235    0.00000       Uiso       1.00
      H276          H  0.2184460  0.1865070  0.2254692    0.00000       Uiso       1.00
      C843          C  0.1543376  0.1621581  0.3524579    0.00000       Uiso       1.00
      C844          C  0.1682324  0.1704488  0.3351996    0.00000       Uiso       1.00
      C845          C  0.1748215  0.1814214  0.3395307    0.00000       Uiso       1.00
      C846          C  0.1878503  0.1905235  0.3220522    0.00000       Uiso       1.00
      C847          C  0.1934197  0.1900709  0.2999910    0.00000       Uiso       1.00
      C848          C  0.1863887  0.1791890  0.2960117    0.00000       Uiso       1.00
      C849          C  0.1753663  0.1678712  0.3129780    0.00000       Uiso       1.00
      O333          O  0.1454184  0.1639106  0.3750246    0.00000       Uiso       1.00
      H277          H  0.1698964  0.1827826  0.3565184    0.00000       Uiso       1.00
      H278          H  0.1933087  0.1980345  0.3260392    0.00000       Uiso       1.00
      H279          H  0.1883214  0.1806278  0.2798798    0.00000       Uiso       1.00
      C850          C  0.1474907  0.1517915  0.3482079    0.00000       Uiso       1.00
      C851          C  0.1552176  0.1478692  0.3264016    0.00000       Uiso       1.00
      C852          C  0.1486562  0.1368801  0.3220507    0.00000       Uiso       1.00
      C853          C  0.1574695  0.1321635  0.3001069    0.00000       Uiso       1.00
      C854          C  0.1740843  0.1370958  0.2820964    0.00000       Uiso       1.00
      C855          C  0.1806594  0.1479247  0.2868459    0.00000       Uiso       1.00
      C856          C  0.1702783  0.1549365  0.3085186    0.00000       Uiso       1.00
      O334          O  0.1333008  0.1453332  0.3674502    0.00000       Uiso       1.00
      H280          H  0.1365964  0.1320807  0.3357578    0.00000       Uiso       1.00
      H281          H  0.1512880  0.1244782  0.2974632    0.00000       Uiso       1.00
      H282          H  0.1948638  0.1497492  0.2738261    0.00000       Uiso       1.00
      C857          C  0.2459565  0.2273500  0.2267949    0.00000       Uiso       1.00
      C858          C  0.2318869  0.2196088  0.2447949    0.00000       Uiso       1.00
      C859          C  0.2209893  0.2261559  0.2666913    0.00000       Uiso       1.00
      C860          C  0.2078687  0.2173291  0.2845364    0.00000       Uiso       1.00
      C861          C  0.2064687  0.2007155  0.2810024    0.00000       Uiso       1.00
      C862          C  0.2177788  0.1941548  0.2588538    0.00000       Uiso       1.00
      C863          C  0.2290594  0.2045488  0.2405534    0.00000       Uiso       1.00
      O335          O  0.2510125  0.2415415  0.2281976    0.00000       Uiso       1.00
      H283          H  0.2226406  0.2382150  0.2698407    0.00000       Uiso       1.00
      H284          H  0.1990544  0.2234995  0.3010435    0.00000       Uiso       1.00
      H285          H  0.2189611  0.1799522  0.2558458    0.00000       Uiso       1.00
      C864          C  0.2229520  0.1288975  0.1742172    0.00000       Uiso       1.00
      C865          C  0.2268877  0.1429671  0.1780244    0.00000       Uiso       1.00
      C866          C  0.2378755  0.1538779  0.1604816    0.00000       Uiso       1.00
      C867          C  0.2426058  0.1669985  0.1645804    0.00000       Uiso       1.00
      C868          C  0.2376892  0.1683861  0.1861205    0.00000       Uiso       1.00
      C869          C  0.2268615  0.1570634  0.2035165    0.00000       Uiso       1.00
      C870          C  0.2198354  0.1457814  0.2001468    0.00000       Uiso       1.00
      O336          O  0.2293948  0.1238534  0.1535735    0.00000       Uiso       1.00
      H286          H  0.2426634  0.1522373  0.1436270    0.00000       Uiso       1.00
      H287          H  0.2502894  0.1758229  0.1507203    0.00000       Uiso       1.00
      H288          H  0.2250495  0.1558729  0.2195383    0.00000       Uiso       1.00
       B22          B  0.2215793  0.1081325  0.1601714    0.00000       Uiso       1.00
       B23          B  0.2667271  0.2427621  0.2046652    0.00000       Uiso       1.00
       B24          B  0.1320977  0.1531405  0.3843821    0.00000       Uiso       1.00
