data_32
_audit_creation_date              0000-00-00
_audit_creation_method            'LanYouShi'
_symmetry_space_group_name_H-M    'P1'
_cell_length_a                    84.9225998
_cell_length_b                    73.5671005
_cell_length_c                    73.5671005
_cell_angle_alpha                 70.5409012
_cell_angle_beta                  54.7470016
_cell_angle_gamma                 54.7468987
loop_
_atom_site_label
_atom_site_type_symbol
_atom_site_fract_x
_atom_site_fract_y
_atom_site_fract_z
_atom_site_U_iso_or_equiv
_atom_site_adp_type
_atom_site_occupancy
        C1          C  0.4999998  0.5000001  0.4999999    0.00000       Uiso       1.00
        C2          C  0.3238250  0.5713035  0.6357569    0.00000       Uiso       1.00
        C3          C  0.3317873  0.5759051  0.6126831    0.00000       Uiso       1.00
        C4          C  0.3163493  0.5907847  0.6050848    0.00000       Uiso       1.00
        C5          C  0.2932242  0.6011734  0.6203964    0.00000       Uiso       1.00
        C6          C  0.2852620  0.5967726  0.6435124    0.00000       Uiso       1.00
        C7          C  0.3006946  0.5817715  0.6511054    0.00000       Uiso       1.00
        H1          H  0.3353372  0.5596144  0.6420330    0.00000       Uiso       1.00
        H2          H  0.2949316  0.5780180  0.6688691    0.00000       Uiso       1.00
        H3          H  0.3222127  0.5943481  0.5872895    0.00000       Uiso       1.00
        H4          H  0.2816168  0.6126459  0.6141363    0.00000       Uiso       1.00
        C8          C  0.5923092  0.3873180  0.5759000    0.00000       Uiso       1.00
        C9          C  0.6048733  0.3642441  0.5712979    0.00000       Uiso       1.00
       C10          C  0.5928676  0.3949165  0.5907792    0.00000       Uiso       1.00
       C11          C  0.6056043  0.3796051  0.6011673    0.00000       Uiso       1.00
       C12          C  0.6179675  0.3564890  0.5967659    0.00000       Uiso       1.00
       C13          C  0.6175360  0.3488957  0.5817652    0.00000       Uiso       1.00
        H5          H  0.6050503  0.3579678  0.5596091    0.00000       Uiso       1.00
        H6          H  0.6270527  0.3311319  0.5780114    0.00000       Uiso       1.00
        H7          H  0.5834407  0.4127119  0.5943428    0.00000       Uiso       1.00
        H8          H  0.6057392  0.3858654  0.6126395    0.00000       Uiso       1.00
       C14          C  0.5203729  0.4240980  0.3873192    0.00000       Uiso       1.00
       C15          C  0.5308828  0.4286997  0.3642454    0.00000       Uiso       1.00
       C16          C  0.5122157  0.4092189  0.3949179    0.00000       Uiso       1.00
       C17          C  0.5147905  0.3988307  0.3796066    0.00000       Uiso       1.00
       C18          C  0.5255435  0.4032315  0.3564907    0.00000       Uiso       1.00
       C19          C  0.5335684  0.4182321  0.3488972    0.00000       Uiso       1.00
        H9          H  0.5369823  0.4403884  0.3579690    0.00000       Uiso       1.00
       H10          H  0.5418157  0.4219856  0.3311335    0.00000       Uiso       1.00
       H11          H  0.5038470  0.4056557  0.4127133    0.00000       Uiso       1.00
       H12          H  0.5083950  0.3873586  0.3858671    0.00000       Uiso       1.00
       C20          C  0.5555299  0.6126792  0.4240974    0.00000       Uiso       1.00
       C21          C  0.5404181  0.6357532  0.4286995    0.00000       Uiso       1.00
       C22          C  0.5785665  0.6050802  0.4092177    0.00000       Uiso       1.00
       C23          C  0.5863802  0.6203912  0.3988294    0.00000       Uiso       1.00
       C24          C  0.5712262  0.6435073  0.4032307    0.00000       Uiso       1.00
       C25          C  0.5482001  0.6511011  0.4182318    0.00000       Uiso       1.00
       H13          H  0.5226296  0.6420298  0.4403886    0.00000       Uiso       1.00
       H14          H  0.5361992  0.6688650  0.4219857    0.00000       Uiso       1.00
       H15          H  0.5904987  0.5872847  0.4056541    0.00000       Uiso       1.00
       H16          H  0.6042481  0.6141305  0.3873569    0.00000       Uiso       1.00
       C26          C  0.3945219  0.5314162  0.5828727    0.00000       Uiso       1.00
       C27          C  0.4035576  0.5432742  0.5641866    0.00000       Uiso       1.00
       C28          C  0.3892753  0.5657067  0.5612701    0.00000       Uiso       1.00
       C29          C  0.3661381  0.5761531  0.5770364    0.00000       Uiso       1.00
       C30          C  0.3567115  0.5645891  0.5959693    0.00000       Uiso       1.00
       C31          C  0.3713540  0.5420688  0.5985756    0.00000       Uiso       1.00
       H17          H  0.3647242  0.5326133  0.6126220    0.00000       Uiso       1.00
       H18          H  0.3555425  0.5934396  0.5746540    0.00000       Uiso       1.00
       C32          C  0.5531690  0.4358141  0.5432711    0.00000       Uiso       1.00
       C33          C  0.5740631  0.4171276  0.5314126    0.00000       Uiso       1.00
       C34          C  0.5450187  0.4387310  0.5657035    0.00000       Uiso       1.00
       C35          C  0.5577098  0.4229648  0.5761492    0.00000       Uiso       1.00
       C36          C  0.5787007  0.4040317  0.5645847    0.00000       Uiso       1.00
       C37          C  0.5865786  0.4014249  0.5420646    0.00000       Uiso       1.00
       H19          H  0.6026643  0.3873782  0.5326086    0.00000       Uiso       1.00
       H20          H  0.5510188  0.4253475  0.5934355    0.00000       Uiso       1.00
       C38          C  0.5110168  0.4567277  0.4358146    0.00000       Uiso       1.00
       C39          C  0.5088089  0.4685860  0.4171288    0.00000       Uiso       1.00
       C40          C  0.5162505  0.4342954  0.4387313    0.00000       Uiso       1.00
       C41          C  0.5193256  0.4238493  0.4229653    0.00000       Uiso       1.00
       C42          C  0.5172675  0.4354136  0.4040327    0.00000       Uiso       1.00
       C43          C  0.5119962  0.4579338  0.4014263    0.00000       Uiso       1.00
       H21          H  0.5099569  0.4673896  0.3873801    0.00000       Uiso       1.00
       H22          H  0.5236341  0.4065630  0.4253477    0.00000       Uiso       1.00
       C44          C  0.5322557  0.5641844  0.4567273    0.00000       Uiso       1.00
       C45          C  0.5226051  0.5828707  0.4685856    0.00000       Uiso       1.00
       C46          C  0.5494550  0.5612672  0.4342948    0.00000       Uiso       1.00
       C47          C  0.5568260  0.5770330  0.4238487    0.00000       Uiso       1.00
       C48          C  0.5473194  0.5959659  0.4354130    0.00000       Uiso       1.00
       C49          C  0.5300702  0.5985730  0.4579333    0.00000       Uiso       1.00
       H23          H  0.5226534  0.6126195  0.4673891    0.00000       Uiso       1.00
       H24          H  0.5698042  0.5746502  0.4065623    0.00000       Uiso       1.00
       C50          C  0.4089361  0.5089820  0.5853679    0.00000       Uiso       1.00
       C51          C  0.4318691  0.4985120  0.5696987    0.00000       Uiso       1.00
       C52          C  0.3985009  0.5772578  0.5424966    0.00000       Uiso       1.00
       C53          C  0.4214477  0.5667977  0.5269061    0.00000       Uiso       1.00
       C54          C  0.5182541  0.4227440  0.4575045    0.00000       Uiso       1.00
       C55          C  0.5151507  0.4332037  0.4730945    0.00000       Uiso       1.00
       C56          C  0.5590031  0.5424936  0.4227434    0.00000       Uiso       1.00
       C57          C  0.5516468  0.5269037  0.4332031    0.00000       Uiso       1.00
       C58          C  0.5056952  0.5853665  0.4910198    0.00000       Uiso       1.00
       C59          C  0.4984313  0.5696979  0.5014894    0.00000       Uiso       1.00
        N1          N  0.5175311  0.4200208  0.4929191    0.00000       Uiso       1.00
        O1          O  0.5149372  0.4286689  0.5065316    0.00000       Uiso       1.00
        O2          O  0.5220317  0.4008105  0.4951940    0.00000       Uiso       1.00
        N2          N  0.5237873  0.3987523  0.4612301    0.00000       Uiso       1.00
        O3          O  0.5255012  0.3888560  0.4773827    0.00000       Uiso       1.00
        O4          O  0.5265069  0.3894231  0.4480650    0.00000       Uiso       1.00
        N3          N  0.4802183  0.5732021  0.5255844    0.00000       Uiso       1.00
        O5          O  0.4737146  0.5599537  0.5349190    0.00000       Uiso       1.00
        O6          O  0.4721274  0.5892566  0.5355585    0.00000       Uiso       1.00
        N4          N  0.4950295  0.6050568  0.5043007    0.00000       Uiso       1.00
        O7          O  0.4804958  0.6071704  0.5235839    0.00000       Uiso       1.00
        O8          O  0.5010152  0.6187209  0.4956618    0.00000       Uiso       1.00
        N5          N  0.5624496  0.5070788  0.4200202    0.00000       Uiso       1.00
        O9          O  0.5563954  0.4934665  0.4286683    0.00000       Uiso       1.00
       O10          O  0.5771592  0.5048038  0.4008095    0.00000       Uiso       1.00
        N6          N  0.5774622  0.5387673  0.3987516    0.00000       Uiso       1.00
       O11          O  0.5856450  0.5226144  0.3888552    0.00000       Uiso       1.00
       O12          O  0.5840712  0.5519328  0.3894220    0.00000       Uiso       1.00
        N7          N  0.3837679  0.6012496  0.5387710    0.00000       Uiso       1.00
       O13          O  0.3917382  0.6111457  0.5226181    0.00000       Uiso       1.00
       O14          O  0.3639930  0.6105792  0.5519363    0.00000       Uiso       1.00
        N8          N  0.4304700  0.5799803  0.5070813    0.00000       Uiso       1.00
       O15          O  0.4501369  0.5713318  0.4934685    0.00000       Uiso       1.00
       O16          O  0.4180350  0.5991908  0.5048064    0.00000       Uiso       1.00
        N9          N  0.3999115  0.4957014  0.6050580    0.00000       Uiso       1.00
       O17          O  0.4123318  0.4764181  0.6071709    0.00000       Uiso       1.00
       O18          O  0.3802614  0.5043408  0.6187230    0.00000       Uiso       1.00
       N10          N  0.4465781  0.4744169  0.5732022    0.00000       Uiso       1.00
       O19          O  0.4663307  0.4650820  0.5599533    0.00000       Uiso       1.00
       O20          O  0.4386145  0.4644435  0.5892571    0.00000       Uiso       1.00
       C60          C  0.4642850  0.4998169  0.5353923    0.00000       Uiso       1.00
       C61          C  0.4740807  0.5116971  0.5171641    0.00000       Uiso       1.00
       C62          C  0.4590993  0.5339155  0.5141169    0.00000       Uiso       1.00
       C63          C  0.4358992  0.5444957  0.5296611    0.00000       Uiso       1.00
       C64          C  0.4269037  0.5326680  0.5483572    0.00000       Uiso       1.00
       C65          C  0.4411281  0.5101892  0.5511244    0.00000       Uiso       1.00
       H25          H  0.4748242  0.4824138  0.5375183    0.00000       Uiso       1.00
       H26          H  0.4654983  0.5431324  0.4995927    0.00000       Uiso       1.00
       C66          C  0.5142222  0.4828361  0.5116961    0.00000       Uiso       1.00
       C67          C  0.5358984  0.4646076  0.4998154    0.00000       Uiso       1.00
       C68          C  0.5069851  0.4858836  0.5339144    0.00000       Uiso       1.00
       C69          C  0.5196052  0.4703397  0.5444939    0.00000       Uiso       1.00
       C70          C  0.5404288  0.4516432  0.5326656    0.00000       Uiso       1.00
       C71          C  0.5486834  0.4488757  0.5101870    0.00000       Uiso       1.00
       H27          H  0.5427625  0.4624814  0.4824124    0.00000       Uiso       1.00
       H28          H  0.4913687  0.5004081  0.5431318    0.00000       Uiso       1.00
       C72          C  0.5029414  0.4883036  0.4828362    0.00000       Uiso       1.00
       C73          C  0.4994934  0.5001840  0.4646082    0.00000       Uiso       1.00
       C74          C  0.5071312  0.4660853  0.4858834    0.00000       Uiso       1.00
       C75          C  0.5100552  0.4555055  0.4703396    0.00000       Uiso       1.00
       C76          C  0.5079278  0.4673335  0.4516436    0.00000       Uiso       1.00
       C77          C  0.5024405  0.4898122  0.4488765    0.00000       Uiso       1.00
       H29          H  0.4947555  0.5175871  0.4624822    0.00000       Uiso       1.00
       H30          H  0.5082234  0.4568681  0.5004073    0.00000       Uiso       1.00
       C78          C  0.5087549  0.5171636  0.4883034    0.00000       Uiso       1.00
       C79          C  0.5003220  0.5353920  0.5001838    0.00000       Uiso       1.00
       C80          C  0.5267838  0.5141159  0.4660850    0.00000       Uiso       1.00
       C81          C  0.5344399  0.5296594  0.4555050    0.00000       Uiso       1.00
       C82          C  0.5247388  0.5483557  0.4673331    0.00000       Uiso       1.00
       C83          C  0.5077469  0.5511235  0.4898119    0.00000       Uiso       1.00
       H31          H  0.4876566  0.5375183  0.5175869    0.00000       Uiso       1.00
       H32          H  0.5349090  0.4995916  0.4568677    0.00000       Uiso       1.00
       C84          C  0.5696199  0.4303011  0.4985093    0.00000       Uiso       1.00
       C85          C  0.5820831  0.4146321  0.5089785    0.00000       Uiso       1.00
       C86          C  0.5117546  0.4730950  0.5667957    0.00000       Uiso       1.00
       C87          C  0.5242416  0.4575048  0.5772551    0.00000       Uiso       1.00
       C88          C  0.5000783  0.5014896  0.4303025    0.00000       Uiso       1.00
       C89          C  0.5032841  0.4910201  0.4146337    0.00000       Uiso       1.00
       N11          N  0.5149825  0.4612308  0.6012468    0.00000       Uiso       1.00
       O21          O  0.4971158  0.4773840  0.6111434    0.00000       Uiso       1.00
       O22          O  0.5254278  0.4480651  0.6105761    0.00000       Uiso       1.00
       N12          N  0.4895492  0.4929202  0.5799789    0.00000       Uiso       1.00
       O23          O  0.4828307  0.4952568  0.5991537    0.00000       Uiso       1.00
       O24          O  0.4784741  0.5064700  0.5713701    0.00000       Uiso       1.00
       N13          N  0.6043888  0.3949416  0.4956975    0.00000       Uiso       1.00
       O25          O  0.6112520  0.3928282  0.4764143    0.00000       Uiso       1.00
       O26          O  0.6154002  0.3812771  0.5043360    0.00000       Uiso       1.00
       N14          N  0.5790061  0.4267971  0.4744143    0.00000       Uiso       1.00
       O27          O  0.5970096  0.4108176  0.4644006    0.00000       Uiso       1.00
       O28          O  0.5685258  0.4399666  0.4651197    0.00000       Uiso       1.00
       N15          N  0.4941957  0.5255846  0.4267989    0.00000       Uiso       1.00
       O29          O  0.4921715  0.5355980  0.4108199    0.00000       Uiso       1.00
       O30          O  0.4915055  0.5348797  0.4399689    0.00000       Uiso       1.00
       N16          N  0.5006685  0.5043010  0.3949439    0.00000       Uiso       1.00
       O31          O  0.4959185  0.5235842  0.3928308    0.00000       Uiso       1.00
       O32          O  0.5033226  0.4956619  0.3812790    0.00000       Uiso       1.00
       C90          C  0.8748389  0.8749924  0.6251055    0.00000       Uiso       1.00
       C91          C  0.7389717  0.8347035  0.7300113    0.00000       Uiso       1.00
       C92          C  0.7620472  0.8195823  0.7174490    0.00000       Uiso       1.00
       C93          C  0.7696322  0.7965532  0.7180139    0.00000       Uiso       1.00
       C94          C  0.7543058  0.7887560  0.7307554    0.00000       Uiso       1.00
       C95          C  0.7311880  0.8039194  0.7431168    0.00000       Uiso       1.00
       C96          C  0.7236081  0.8269380  0.7426787    0.00000       Uiso       1.00
       H33          H  0.7327055  0.8524868  0.7301831    0.00000       Uiso       1.00
       H34          H  0.7058433  0.8389460  0.7521939    0.00000       Uiso       1.00
       H35          H  0.7874289  0.7846140  0.7085885    0.00000       Uiso       1.00
       H36          H  0.7605560  0.7708936  0.7308953    0.00000       Uiso       1.00
       C97          C  0.7990273  0.0431717  0.6454290    0.00000       Uiso       1.00
       C98          C  0.8036453  0.0511327  0.6559282    0.00000       Uiso       1.00
       C99          C  0.7841446  0.0586057  0.6372757    0.00000       Uiso       1.00
      C100          C  0.7737687  0.0817261  0.6398437    0.00000       Uiso       1.00
      C101          C  0.7781858  0.0896873  0.6505859    0.00000       Uiso       1.00
      C102          C  0.7931900  0.0742585  0.6586072    0.00000       Uiso       1.00
       H37          H  0.8153371  0.0396232  0.6620247    0.00000       Uiso       1.00
       H38          H  0.7969559  0.0800207  0.6668463    0.00000       Uiso       1.00
       H39          H  0.7805689  0.0527430  0.6289151    0.00000       Uiso       1.00
       H40          H  0.7622935  0.0933306  0.6334514    0.00000       Uiso       1.00
      C103          C  0.9875644  0.7826982  0.6805986    0.00000       Uiso       1.00
      C104          C  0.0106412  0.7701223  0.6654887    0.00000       Uiso       1.00
      C105          C  0.9799686  0.7821539  0.7036282    0.00000       Uiso       1.00
      C106          C  0.9952860  0.7694194  0.7114369    0.00000       Uiso       1.00
      C107          C  0.0184051  0.7570443  0.6962847    0.00000       Uiso       1.00
      C108          C  0.0259955  0.7574617  0.6732657    0.00000       Uiso       1.00
       H41          H  0.0169151  0.7699346  0.6477056    0.00000       Uiso       1.00
       H42          H  0.0437615  0.7479358  0.6612663    0.00000       Uiso       1.00
       H43          H  0.9621710  0.7915900  0.7155589    0.00000       Uiso       1.00
       H44          H  0.9890279  0.7692955  0.7292994    0.00000       Uiso       1.00
      C109          C  0.9507165  0.8545180  0.4569453    0.00000       Uiso       1.00
      C110          C  0.9460973  0.8440117  0.4489937    0.00000       Uiso       1.00
      C111          C  0.9656096  0.8626574  0.4415040    0.00000       Uiso       1.00
      C112          C  0.9759949  0.8600687  0.4183859    0.00000       Uiso       1.00
      C113          C  0.9715765  0.8493193  0.4104344    0.00000       Uiso       1.00
      C114          C  0.9565616  0.8413119  0.4258703    0.00000       Uiso       1.00
       H45          H  0.9343976  0.8379256  0.4605086    0.00000       Uiso       1.00
       H46          H  0.9527946  0.8330677  0.4201154    0.00000       Uiso       1.00
       H47          H  0.9691865  0.8710232  0.4473592    0.00000       Uiso       1.00
       H48          H  0.9874780  0.8664506  0.4067758    0.00000       Uiso       1.00
      C115          C  0.7919050  0.8524696  0.6991829    0.00000       Uiso       1.00
      C116          C  0.8105900  0.8428054  0.6782942    0.00000       Uiso       1.00
      C117          C  0.8134906  0.8256091  0.6701540    0.00000       Uiso       1.00
      C118          C  0.7977093  0.8182547  0.6828498    0.00000       Uiso       1.00
      C119          C  0.7787771  0.8277751  0.7038354    0.00000       Uiso       1.00
      C120          C  0.7761872  0.8450209  0.7117032    0.00000       Uiso       1.00
       H49          H  0.7621418  0.8524480  0.7277846    0.00000       Uiso       1.00
       H50          H  0.8000792  0.8052785  0.6761667    0.00000       Uiso       1.00
      C121          C  0.8316185  0.9714147  0.6360942    0.00000       Uiso       1.00
      C122          C  0.8434947  0.9804397  0.6338779    0.00000       Uiso       1.00
      C123          C  0.8091809  0.9857033  0.6413293    0.00000       Uiso       1.00
      C124          C  0.7987472  0.0088366  0.6443975    0.00000       Uiso       1.00
      C125          C  0.8103294  0.0182524  0.6423310    0.00000       Uiso       1.00
      C126          C  0.8328544  0.0036038  0.6370583    0.00000       Uiso       1.00
       H51          H  0.8423240  0.0102252  0.6350129    0.00000       Uiso       1.00
       H52          H  0.7814565  0.0194373  0.6487072    0.00000       Uiso       1.00
      C127          C  0.9390494  0.8218323  0.6573403    0.00000       Uiso       1.00
      C128          C  0.9577294  0.8009349  0.6476950    0.00000       Uiso       1.00
      C129          C  0.9361450  0.8299879  0.6745291    0.00000       Uiso       1.00
      C130          C  0.9519174  0.8172988  0.6818950    0.00000       Uiso       1.00
      C131          C  0.9708442  0.7963045  0.6723936    0.00000       Uiso       1.00
      C132          C  0.9734383  0.7884212  0.6551550    0.00000       Uiso       1.00
       H53          H  0.9874796  0.7723330  0.6477424    0.00000       Uiso       1.00
       H54          H  0.9495446  0.8239936  0.6948651    0.00000       Uiso       1.00
      C133          C  0.9180976  0.8639171  0.5286931    0.00000       Uiso       1.00
      C134          C  0.9062265  0.8661252  0.5196662    0.00000       Uiso       1.00
      C135          C  0.9405392  0.8586692  0.5144093    0.00000       Uiso       1.00
      C136          C  0.9509816  0.8555803  0.4912795    0.00000       Uiso       1.00
      C137          C  0.9394045  0.8576383  0.4818618    0.00000       Uiso       1.00
      C138          C  0.9168752  0.8629241  0.4965055    0.00000       Uiso       1.00
       H55          H  0.9074098  0.8649636  0.4898823    0.00000       Uiso       1.00
       H56          H  0.9682751  0.8512611  0.4806827    0.00000       Uiso       1.00
      C139          C  0.7894263  0.8693761  0.7071928    0.00000       Uiso       1.00
      C140          C  0.8051103  0.8766237  0.6947249    0.00000       Uiso       1.00
      C141          C  0.8322631  0.8160475  0.6493821    0.00000       Uiso       1.00
      C142          C  0.8478684  0.8233876  0.6368905    0.00000       Uiso       1.00
      C143          C  0.9173776  0.8507686  0.6840720    0.00000       Uiso       1.00
      C144          C  0.9017812  0.8632537  0.6767207    0.00000       Uiso       1.00
      C145          C  0.9521034  0.8566656  0.5236262    0.00000       Uiso       1.00
      C146          C  0.9416471  0.8597827  0.5465657    0.00000       Uiso       1.00
      C147          C  0.8837835  0.8716641  0.5340817    0.00000       Uiso       1.00
      C148          C  0.8733177  0.8748836  0.5570074    0.00000       Uiso       1.00
       N17          N  0.8819631  0.8854629  0.6875175    0.00000       Uiso       1.00
       O33          O  0.8683455  0.8964801  0.6814675    0.00000       Uiso       1.00
       O34          O  0.8796988  0.8922430  0.7022187    0.00000       Uiso       1.00
       N18          N  0.9136650  0.8600333  0.7025197    0.00000       Uiso       1.00
       O35          O  0.8975172  0.8779031  0.7106980    0.00000       Uiso       1.00
       O36          O  0.9268355  0.8495894  0.7091249    0.00000       Uiso       1.00
       N19          N  0.8492127  0.8807808  0.5717182    0.00000       Uiso       1.00
       O37          O  0.8398810  0.8836238  0.5914646    0.00000       Uiso       1.00
       O38          O  0.8392279  0.8826642  0.5637618    0.00000       Uiso       1.00
       N20          N  0.8704891  0.8742802  0.5250663    0.00000       Uiso       1.00
       O39          O  0.8511980  0.8790423  0.5374876    0.00000       Uiso       1.00
       O40          O  0.8791245  0.8716155  0.5054223    0.00000       Uiso       1.00
       N21          N  0.9548439  0.8574015  0.5555788    0.00000       Uiso       1.00
       O41          O  0.9461990  0.8600071  0.5752394    0.00000       Uiso       1.00
       O42          O  0.9740623  0.8528878  0.5431428    0.00000       Uiso       1.00
       N22          N  0.9761052  0.8511174  0.5088914    0.00000       Uiso       1.00
       O43          O  0.9860126  0.8494035  0.5168542    0.00000       Uiso       1.00
       O44          O  0.9854320  0.8483849  0.4891227    0.00000       Uiso       1.00
       N23          N  0.8359717  0.7975913  0.6401340    0.00000       Uiso       1.00
       O45          O  0.8521239  0.7893969  0.6222717    0.00000       Uiso       1.00
       O46          O  0.8227934  0.7909955  0.6505838    0.00000       Uiso       1.00
       N24          N  0.8676916  0.8125706  0.6146911    0.00000       Uiso       1.00
       O47          O  0.8813171  0.8186108  0.6036685    0.00000       Uiso       1.00
       O48          O  0.8699527  0.7978632  0.6079242    0.00000       Uiso       1.00
       N25          N  0.7697377  0.8800560  0.7294924    0.00000       Uiso       1.00
       O49          O  0.7676387  0.8945869  0.7363469    0.00000       Uiso       1.00
       O50          O  0.7560600  0.8740850  0.7405074    0.00000       Uiso       1.00
       N26          N  0.8016238  0.8948339  0.7041001    0.00000       Uiso       1.00
       O51          O  0.8148856  0.9013238  0.6936780    0.00000       Uiso       1.00
       O52          O  0.7855694  0.9029372  0.7220331    0.00000       Uiso       1.00
      C149          C  0.8394306  0.8747029  0.6610040    0.00000       Uiso       1.00
      C150          C  0.8576580  0.8662558  0.6393332    0.00000       Uiso       1.00
      C151          C  0.8606889  0.8482307  0.6321061    0.00000       Uiso       1.00
      C152          C  0.8451298  0.8405911  0.6447309    0.00000       Uiso       1.00
      C153          C  0.8264345  0.8503056  0.6655492    0.00000       Uiso       1.00
      C154          C  0.8236836  0.8672945  0.6737936    0.00000       Uiso       1.00
       H57          H  0.8373168  0.8873664  0.6678601    0.00000       Uiso       1.00
       H58          H  0.8752120  0.8400953  0.6164939    0.00000       Uiso       1.00
      C155          C  0.8631564  0.9009061  0.6280395    0.00000       Uiso       1.00
      C156          C  0.8750547  0.9106902  0.6245834    0.00000       Uiso       1.00
      C157          C  0.8409333  0.9158929  0.6322309    0.00000       Uiso       1.00
      C158          C  0.8303658  0.9390884  0.6351479    0.00000       Uiso       1.00
      C159          C  0.8422118  0.9480731  0.6330122    0.00000       Uiso       1.00
      C160          C  0.8646955  0.9338424  0.6275235    0.00000       Uiso       1.00
       H59          H  0.8924620  0.9001456  0.6198444    0.00000       Uiso       1.00
       H60          H  0.8317023  0.9095016  0.6333295    0.00000       Uiso       1.00
      C161          C  0.8920094  0.8607724  0.6338549    0.00000       Uiso       1.00
      C162          C  0.9102310  0.8390940  0.6254274    0.00000       Uiso       1.00
      C163          C  0.8889741  0.8680157  0.6518734    0.00000       Uiso       1.00
      C164          C  0.9045241  0.8553977  0.6595243    0.00000       Uiso       1.00
      C165          C  0.9232140  0.8345706  0.6498286    0.00000       Uiso       1.00
      C166          C  0.9259690  0.8263110  0.6328472    0.00000       Uiso       1.00
       H61          H  0.9123472  0.8322265  0.6127700    0.00000       Uiso       1.00
       H62          H  0.8744543  0.8836353  0.6599945    0.00000       Uiso       1.00
      C167          C  0.8865318  0.8720351  0.5991944    0.00000       Uiso       1.00
      C168          C  0.8746393  0.8754824  0.5894072    0.00000       Uiso       1.00
      C169          C  0.9087598  0.8678303  0.5842114    0.00000       Uiso       1.00
      C170          C  0.9193363  0.8648925  0.5610186    0.00000       Uiso       1.00
      C171          C  0.9074953  0.8670201  0.5520319    0.00000       Uiso       1.00
      C172          C  0.8850075  0.8725215  0.5662577    0.00000       Uiso       1.00
       H63          H  0.8572295  0.8802308  0.5999475    0.00000       Uiso       1.00
       H64          H  0.9179872  0.8667374  0.5906038    0.00000       Uiso       1.00
      C173          C  0.8763908  0.9430906  0.6251530    0.00000       Uiso       1.00
      C174          C  0.8659337  0.9660192  0.6283520    0.00000       Uiso       1.00
      C175          C  0.8080591  0.9535459  0.6402448    0.00000       Uiso       1.00
      C176          C  0.7976117  0.9764882  0.6433413    0.00000       Uiso       1.00
      C177          C  0.9445369  0.8053712  0.6235369    0.00000       Uiso       1.00
      C178          C  0.9602121  0.7929097  0.6307958    0.00000       Uiso       1.00
       N27          N  0.7736140  0.9912280  0.6488763    0.00000       Uiso       1.00
       O53          O  0.7637024  0.9832669  0.6505973    0.00000       Uiso       1.00
       O54          O  0.7642944  0.0109999  0.6515911    0.00000       Uiso       1.00
       N28          N  0.7948571  0.9445350  0.6426341    0.00000       Uiso       1.00
       O55          O  0.7756780  0.9569966  0.6470174    0.00000       Uiso       1.00
       O56          O  0.8034553  0.9248547  0.6401655    0.00000       Uiso       1.00
       N29          N  0.8792334  0.9750322  0.6257277    0.00000       Uiso       1.00
       O57          O  0.8985211  0.9626065  0.6209767    0.00000       Uiso       1.00
       O58          O  0.8706057  0.9946786  0.6283749    0.00000       Uiso       1.00
       N30          N  0.9004919  0.9283745  0.6192689    0.00000       Uiso       1.00
       O59          O  0.9105206  0.9363550  0.6172376    0.00000       Uiso       1.00
       O60          O  0.9097763  0.9086028  0.6165854    0.00000       Uiso       1.00
       N31          N  0.9480273  0.7959796  0.6053352    0.00000       Uiso       1.00
       O61          O  0.9640012  0.7779734  0.5973501    0.00000       Uiso       1.00
       O62          O  0.9348519  0.8064578  0.5987347    0.00000       Uiso       1.00
       N32          N  0.9798952  0.7706004  0.6201361    0.00000       Uiso       1.00
       O63          O  0.9819977  0.7637329  0.6056114    0.00000       Uiso       1.00
       O64          O  0.9935654  0.7595908  0.6261170    0.00000       Uiso       1.00
      C179          C  0.7501719  0.3748835  0.8749957    0.00000       Uiso       1.00
      C180          C  0.6452243  0.3440635  0.0511359    0.00000       Uiso       1.00
      C181          C  0.6578035  0.3545626  0.0431746    0.00000       Uiso       1.00
      C182          C  0.6572521  0.3627161  0.0586083    0.00000       Uiso       1.00
      C183          C  0.6445073  0.3601485  0.0817288    0.00000       Uiso       1.00
      C184          C  0.6321288  0.3494064  0.0896902    0.00000       Uiso       1.00
      C185          C  0.6325535  0.3413850  0.0742617    0.00000       Uiso       1.00
       H65          H  0.6450418  0.3379669  0.0396267    0.00000       Uiso       1.00
       H66          H  0.6230251  0.3331460  0.0800242    0.00000       Uiso       1.00
       H67          H  0.6666906  0.3710765  0.0527454    0.00000       Uiso       1.00
       H68          H  0.6443780  0.3665411  0.0933330    0.00000       Uiso       1.00
      C186          C  0.7297401  0.3193889  0.7827040    0.00000       Uiso       1.00
      C187          C  0.7192391  0.3344986  0.7701288    0.00000       Uiso       1.00
      C188          C  0.7378803  0.2963592  0.7821594    0.00000       Uiso       1.00
      C189          C  0.7352973  0.2885503  0.7694253    0.00000       Uiso       1.00
      C190          C  0.7245532  0.3037024  0.7570508    0.00000       Uiso       1.00
      C191          C  0.7165452  0.3267214  0.7574686    0.00000       Uiso       1.00
       H69          H  0.7131528  0.3522817  0.7699413    0.00000       Uiso       1.00
       H70          H  0.7083051  0.3387206  0.7479432    0.00000       Uiso       1.00
       H71          H  0.7462420  0.2844286  0.7915951    0.00000       Uiso       1.00
       H72          H  0.7416796  0.2706878  0.7693012    0.00000       Uiso       1.00
      C192          C  0.6947677  0.5430435  0.8545240    0.00000       Uiso       1.00
      C193          C  0.7098933  0.5509949  0.8440173    0.00000       Uiso       1.00
      C194          C  0.6717346  0.5584850  0.8626640    0.00000       Uiso       1.00
      C195          C  0.6639380  0.5816030  0.8600757    0.00000       Uiso       1.00
      C196          C  0.6791061  0.5895543  0.8493259    0.00000       Uiso       1.00
      C197          C  0.7021286  0.5741182  0.8413179    0.00000       Uiso       1.00
       H73          H  0.7276797  0.5394798  0.8379306    0.00000       Uiso       1.00
       H74          H  0.7141401  0.5798728  0.8330734    0.00000       Uiso       1.00
       H75          H  0.6597918  0.5526299  0.8710302    0.00000       Uiso       1.00
       H76          H  0.6460726  0.5932133  0.8664581    0.00000       Uiso       1.00
      C198          C  0.9183770  0.2825384  0.8195805    0.00000       Uiso       1.00
      C199          C  0.9263315  0.2699764  0.8347011    0.00000       Uiso       1.00
      C200          C  0.9338214  0.2819731  0.7965512    0.00000       Uiso       1.00
      C201          C  0.9569455  0.2692315  0.7887533    0.00000       Uiso       1.00
      C202          C  0.9649001  0.2568702  0.8039161    0.00000       Uiso       1.00
      C203          C  0.9494610  0.2573088  0.8269349    0.00000       Uiso       1.00
       H77          H  0.9148141  0.2698050  0.8524844    0.00000       Uiso       1.00
       H78          H  0.9552180  0.2477938  0.8389423    0.00000       Uiso       1.00
       H79          H  0.9279638  0.2913983  0.7846125    0.00000       Uiso       1.00
       H80          H  0.9685580  0.2690911  0.7708908    0.00000       Uiso       1.00
      C204          C  0.6760674  0.3661132  0.9804437    0.00000       Uiso       1.00
      C205          C  0.6969689  0.3638966  0.9714181    0.00000       Uiso       1.00
      C206          C  0.7051182  0.3586618  0.9857060    0.00000       Uiso       1.00
      C207          C  0.6924193  0.3555932  0.0088389    0.00000       Uiso       1.00
      C208          C  0.6714209  0.3576600  0.0182553    0.00000       Uiso       1.00
      C209          C  0.6635442  0.3629325  0.0036073    0.00000       Uiso       1.00
       H81          H  0.6474530  0.3649782  0.0102292    0.00000       Uiso       1.00
       H82          H  0.6991094  0.3512837  0.0194391    0.00000       Uiso       1.00
      C210          C  0.7391211  0.3426478  0.8218371    0.00000       Uiso       1.00
      C211          C  0.7413386  0.3522928  0.8009400    0.00000       Uiso       1.00
      C212          C  0.7338700  0.3254590  0.8299927    0.00000       Uiso       1.00
      C213          C  0.7307867  0.3180930  0.8173038    0.00000       Uiso       1.00
      C214          C  0.7328541  0.3275941  0.7963099    0.00000       Uiso       1.00
      C215          C  0.7381431  0.3448327  0.7884267    0.00000       Uiso       1.00
       H83          H  0.7401899  0.3522451  0.7723389    0.00000       Uiso       1.00
       H84          H  0.7264649  0.3051229  0.8239986    0.00000       Uiso       1.00
      C216          C  0.7179880  0.4712957  0.8639219    0.00000       Uiso       1.00
      C217          C  0.7276508  0.4803228  0.8661300    0.00000       Uiso       1.00
      C218          C  0.7007939  0.4855795  0.8586745    0.00000       Uiso       1.00
      C219          C  0.6934404  0.5087093  0.8555859    0.00000       Uiso       1.00
      C220          C  0.7029595  0.5181270  0.8576438    0.00000       Uiso       1.00
      C221          C  0.7202032  0.5034834  0.8629292    0.00000       Uiso       1.00
       H85          H  0.7276291  0.5101066  0.8649686    0.00000       Uiso       1.00
       H86          H  0.6804661  0.5193061  0.8512672    0.00000       Uiso       1.00
      C222          C  0.8466096  0.3216940  0.8428058    0.00000       Uiso       1.00
      C223          C  0.8556306  0.3008055  0.8524695    0.00000       Uiso       1.00
      C224          C  0.8609058  0.3298337  0.8256093    0.00000       Uiso       1.00
      C225          C  0.8840418  0.3171377  0.8182542    0.00000       Uiso       1.00
      C226          C  0.8934538  0.2961523  0.8277740    0.00000       Uiso       1.00
      C227          C  0.8787978  0.2882849  0.8450201    0.00000       Uiso       1.00
       H87          H  0.8854160  0.2722037  0.8524469    0.00000       Uiso       1.00
       H88          H  0.8946482  0.3238206  0.8052778    0.00000       Uiso       1.00
      C228          C  0.6680487  0.3716390  0.9660237    0.00000       Uiso       1.00
      C229          C  0.6805204  0.3748375  0.9430952    0.00000       Uiso       1.00
      C230          C  0.7259029  0.3566495  0.9764904    0.00000       Uiso       1.00
      C231          C  0.7383981  0.3597457  0.9535481    0.00000       Uiso       1.00
      C232          C  0.6912335  0.4763626  0.8566710    0.00000       Uiso       1.00
      C233          C  0.6985726  0.4534231  0.8597877    0.00000       Uiso       1.00
      C234          C  0.8516945  0.3506055  0.8160481    0.00000       Uiso       1.00
      C235          C  0.8287487  0.3630973  0.8233889    0.00000       Uiso       1.00
      C236          C  0.8412027  0.2927960  0.8693764    0.00000       Uiso       1.00
      C237          C  0.8182706  0.3052641  0.8766246    0.00000       Uiso       1.00
       N33          N  0.6877571  0.4444100  0.8574067    0.00000       Uiso       1.00
       O65          O  0.6937965  0.4247494  0.8600120    0.00000       Uiso       1.00
       O66          O  0.6730516  0.4568461  0.8528943    0.00000       Uiso       1.00
       N34          N  0.6727797  0.4910973  0.8511233    0.00000       Uiso       1.00
       O67          O  0.6645862  0.4831345  0.8494095    0.00000       Uiso       1.00
       O68          O  0.6661847  0.5108661  0.8483920    0.00000       Uiso       1.00
       N35          N  0.8035465  0.2958893  0.8948352    0.00000       Uiso       1.00
       O69          O  0.7837945  0.3063115  0.9013256    0.00000       Uiso       1.00
       O70          O  0.8114978  0.2779561  0.9029374    0.00000       Uiso       1.00
       N36          N  0.8502113  0.2704966  0.8800558    0.00000       Uiso       1.00
       O71          O  0.8377794  0.2636425  0.8945869    0.00000       Uiso       1.00
       O72          O  0.8698605  0.2594811  0.8740836    0.00000       Uiso       1.00
       N37          N  0.8197423  0.3852964  0.8125724    0.00000       Uiso       1.00
       O73          O  0.8000764  0.3963192  0.8186132    0.00000       Uiso       1.00
       O74          O  0.8321888  0.3920634  0.7978655    0.00000       Uiso       1.00
       N38          N  0.8664424  0.3598531  0.7975917    0.00000       Uiso       1.00
       O75          O  0.8584846  0.3777152  0.7893976    0.00000       Uiso       1.00
       O76          O  0.8862168  0.3494036  0.7909959    0.00000       Uiso       1.00
       N39          N  0.7351609  0.3511147  0.9912297    0.00000       Uiso       1.00
       O77          O  0.7530342  0.3493934  0.9832679    0.00000       Uiso       1.00
       O78          O  0.7247089  0.3484005  0.0110011    0.00000       Uiso       1.00
       N40          N  0.7606113  0.3573562  0.9445366    0.00000       Uiso       1.00
       O79          O  0.7716373  0.3599437  0.9248737    0.00000       Uiso       1.00
       O80          O  0.7673858  0.3528547  0.9569764    0.00000       Uiso       1.00
       N41          N  0.6457354  0.3742636  0.9750374    0.00000       Uiso       1.00
       O81          O  0.6388735  0.3790144  0.9626123    0.00000       Uiso       1.00
       O82          O  0.6347170  0.3716159  0.9946837    0.00000       Uiso       1.00
       N42          N  0.6711353  0.3807214  0.9283797    0.00000       Uiso       1.00
       O83          O  0.6815605  0.3835462  0.9086307    0.00000       Uiso       1.00
       O84          O  0.6531915  0.3826113  0.9363346    0.00000       Uiso       1.00
      C238          C  0.7142576  0.3754063  0.9106941    0.00000       Uiso       1.00
      C239          C  0.7359404  0.3719500  0.9009095    0.00000       Uiso       1.00
      C240          C  0.7431769  0.3677590  0.9158957    0.00000       Uiso       1.00
      C241          C  0.7305486  0.3648423  0.9390912    0.00000       Uiso       1.00
      C242          C  0.7097176  0.3669782  0.9480765    0.00000       Uiso       1.00
      C243          C  0.7014642  0.3724667  0.9338464    0.00000       Uiso       1.00
       H89          H  0.7073948  0.3801451  0.9001500    0.00000       Uiso       1.00
       H90          H  0.7587993  0.3666602  0.9095040    0.00000       Uiso       1.00
      C244          C  0.7472212  0.3661339  0.8607762    0.00000       Uiso       1.00
      C245          C  0.7506781  0.3745611  0.8390980    0.00000       Uiso       1.00
      C246          C  0.7430135  0.3481154  0.8680194    0.00000       Uiso       1.00
      C247          C  0.7400814  0.3404643  0.8554017    0.00000       Uiso       1.00
      C248          C  0.7422183  0.3501597  0.8345751    0.00000       Uiso       1.00
      C249          C  0.7477230  0.3671410  0.8263155    0.00000       Uiso       1.00
       H91          H  0.7554294  0.3872183  0.8322306    0.00000       Uiso       1.00
       H92          H  0.7419136  0.3399945  0.8836387    0.00000       Uiso       1.00
      C250          C  0.7414361  0.4007946  0.8720388    0.00000       Uiso       1.00
      C251          C  0.7498813  0.4105818  0.8754859    0.00000       Uiso       1.00
      C252          C  0.7234128  0.4157775  0.8678346    0.00000       Uiso       1.00
      C253          C  0.7157740  0.4389703  0.8648970    0.00000       Uiso       1.00
      C254          C  0.7254872  0.4479570  0.8670245    0.00000       Uiso       1.00
      C255          C  0.7424738  0.4337313  0.8725255    0.00000       Uiso       1.00
       H93          H  0.7625428  0.4000416  0.8802340    0.00000       Uiso       1.00
       H94          H  0.7152781  0.4093852  0.8667418    0.00000       Uiso       1.00
      C256          C  0.7760898  0.3606556  0.8662584    0.00000       Uiso       1.00
      C257          C  0.7858704  0.3389850  0.8747050    0.00000       Uiso       1.00
      C258          C  0.7910845  0.3678823  0.8482330    0.00000       Uiso       1.00
      C259          C  0.8142836  0.3552572  0.8405927    0.00000       Uiso       1.00
      C260          C  0.8232644  0.3344392  0.8503068    0.00000       Uiso       1.00
      C261          C  0.8090262  0.3261952  0.8672959    0.00000       Uiso       1.00
       H95          H  0.7753204  0.3321291  0.8873686    0.00000       Uiso       1.00
       H96          H  0.7846966  0.3834943  0.8400981    0.00000       Uiso       1.00
      C262          C  0.7500945  0.3764510  0.8053761    0.00000       Uiso       1.00
      C263          C  0.7468808  0.3691921  0.7929150    0.00000       Uiso       1.00
      C264          C  0.7349684  0.3232679  0.8632576    0.00000       Uiso       1.00
      C265          C  0.7318571  0.3159164  0.8507729    0.00000       Uiso       1.00
      C266          C  0.7518016  0.4429817  0.8748875    0.00000       Uiso       1.00
      C267          C  0.7445550  0.4659073  0.8716684    0.00000       Uiso       1.00
       N43          N  0.7263050  0.2974687  0.8600375    0.00000       Uiso       1.00
       O85          O  0.7245832  0.2892906  0.8779069    0.00000       Uiso       1.00
       O86          O  0.7235773  0.2908640  0.8495944    0.00000       Uiso       1.00
       N44          N  0.7325773  0.3124714  0.8854664    0.00000       Uiso       1.00
       O87          O  0.7281801  0.2976874  0.8921896    0.00000       Uiso       1.00
       O88          O  0.7350585  0.3186020  0.8965397    0.00000       Uiso       1.00
       N45          N  0.7495068  0.3798516  0.7706061    0.00000       Uiso       1.00
       O89          O  0.7542717  0.3943762  0.7637386    0.00000       Uiso       1.00
       O90          O  0.7468470  0.3738699  0.7595965    0.00000       Uiso       1.00
       N46          N  0.7559959  0.3946527  0.7959845    0.00000       Uiso       1.00
       O91          O  0.7580279  0.4026376  0.7779787    0.00000       Uiso       1.00
       O92          O  0.7586922  0.4012541  0.8064629    0.00000       Uiso       1.00
       N47          N  0.7700094  0.4282710  0.8807843    0.00000       Uiso       1.00
       O93          O  0.7780096  0.4362535  0.8828084    0.00000       Uiso       1.00
       O94          O  0.7765997  0.4085020  0.8834862    0.00000       Uiso       1.00
       N48          N  0.7552333  0.4749228  0.8742844    0.00000       Uiso       1.00
       O95          O  0.7697623  0.4625016  0.8790462    0.00000       Uiso       1.00
       O96          O  0.7492632  0.4945666  0.8716190    0.00000       Uiso       1.00
      C268          C  0.3749415  0.1250027  0.3748902    0.00000       Uiso       1.00
      C269          C  0.3036874  0.1652958  0.2699879    0.00000       Uiso       1.00
      C270          C  0.2990798  0.1804166  0.2825498    0.00000       Uiso       1.00
      C271          C  0.2842005  0.2034459  0.2819850    0.00000       Uiso       1.00
      C272          C  0.2738178  0.2112436  0.2692440    0.00000       Uiso       1.00
      C273          C  0.2782245  0.1960806  0.2568829    0.00000       Uiso       1.00
      C274          C  0.2932253  0.1730618  0.2573209    0.00000       Uiso       1.00
       H97          H  0.3153765  0.1475124  0.2698160    0.00000       Uiso       1.00
       H98          H  0.2969833  0.1610542  0.2478059    0.00000       Uiso       1.00
       H99          H  0.2806328  0.2153848  0.2914101    0.00000       Uiso       1.00
      H100          H  0.2623454  0.2291061  0.2691042    0.00000       Uiso       1.00
      C275          C  0.4876335  0.9568228  0.3545661    0.00000       Uiso       1.00
      C276          C  0.5107121  0.9488611  0.3440664    0.00000       Uiso       1.00
      C277          C  0.4800311  0.9413891  0.3627197    0.00000       Uiso       1.00
      C278          C  0.4953437  0.9182686  0.3601516    0.00000       Uiso       1.00
      C279          C  0.5184647  0.9103069  0.3494089    0.00000       Uiso       1.00
      C280          C  0.5260618  0.9257353  0.3413873    0.00000       Uiso       1.00
      H101          H  0.5169914  0.9603702  0.3379696    0.00000       Uiso       1.00
      H102          H  0.5438294  0.9199726  0.3331479    0.00000       Uiso       1.00
      H103          H  0.4622318  0.9472523  0.3710806    0.00000       Uiso       1.00
      H104          H  0.4890804  0.9066645  0.3665443    0.00000       Uiso       1.00
      C281          C  0.4508694  0.2172931  0.3193939    0.00000       Uiso       1.00
      C282          C  0.4462607  0.2298686  0.3345034    0.00000       Uiso       1.00
      C283          C  0.4657592  0.2178372  0.2963641    0.00000       Uiso       1.00
      C284          C  0.4761512  0.2305712  0.2885550    0.00000       Uiso       1.00
      C285          C  0.4717432  0.2429460  0.3037069    0.00000       Uiso       1.00
      C286          C  0.4567319  0.2425286  0.3267261    0.00000       Uiso       1.00
      H105          H  0.4345637  0.2300565  0.3522866    0.00000       Uiso       1.00
      H106          H  0.4529728  0.2520543  0.3387252    0.00000       Uiso       1.00
      H107          H  0.4693281  0.2084014  0.2844336    0.00000       Uiso       1.00
      H108          H  0.4876316  0.2306951  0.2706925    0.00000       Uiso       1.00
      C287          C  0.2621836  0.1454778  0.5430510    0.00000       Uiso       1.00
      C288          C  0.2391060  0.1559848  0.5510031    0.00000       Uiso       1.00
      C289          C  0.2697754  0.1373380  0.5584919    0.00000       Uiso       1.00
      C290          C  0.2544536  0.1399269  0.5816100    0.00000       Uiso       1.00
      C291          C  0.2313338  0.1506768  0.5895621    0.00000       Uiso       1.00
      C292          C  0.2237472  0.1586846  0.5741265    0.00000       Uiso       1.00
      H109          H  0.2328347  0.1620712  0.5394885    0.00000       Uiso       1.00
      H110          H  0.2059807  0.1669293  0.5798817    0.00000       Uiso       1.00
      H111          H  0.2875736  0.1289718  0.5526363    0.00000       Uiso       1.00
      H112          H  0.2607088  0.1335446  0.5932199    0.00000       Uiso       1.00
      C293          C  0.3435602  0.1475279  0.3008147    0.00000       Uiso       1.00
      C294          C  0.3316924  0.1571919  0.3217033    0.00000       Uiso       1.00
      C295          C  0.3092560  0.1743885  0.3298438    0.00000       Uiso       1.00
      C296          C  0.2988156  0.1817435  0.3171484    0.00000       Uiso       1.00
      C297          C  0.3103894  0.1722233  0.2961629    0.00000       Uiso       1.00
      C298          C  0.3329134  0.1549771  0.2882948    0.00000       Uiso       1.00
      H113          H  0.3423765  0.1475500  0.2722135    0.00000       Uiso       1.00
      H114          H  0.2815261  0.1947200  0.3238319    0.00000       Uiso       1.00
      C299          C  0.4391326  0.0285800  0.3639011    0.00000       Uiso       1.00
      C300          C  0.4578179  0.0195544  0.3661168    0.00000       Uiso       1.00
      C301          C  0.4362181  0.0142919  0.3586665    0.00000       Uiso       1.00
      C302          C  0.4519862  0.9911585  0.3555981    0.00000       Uiso       1.00
      C303          C  0.4709183  0.9817421  0.3576641    0.00000       Uiso       1.00
      C304          C  0.4735226  0.9963902  0.3629364    0.00000       Uiso       1.00
      H115          H  0.4875683  0.9897683  0.3649814    0.00000       Uiso       1.00
      H116          H  0.4496055  0.9805582  0.3512888    0.00000       Uiso       1.00
      C305          C  0.4182288  0.1781606  0.3426535    0.00000       Uiso       1.00
      C306          C  0.4063661  0.1990580  0.3522987    0.00000       Uiso       1.00
      C307          C  0.4406693  0.1700045  0.3254644    0.00000       Uiso       1.00
      C308          C  0.4511187  0.1826933  0.3180981    0.00000       Uiso       1.00
      C309          C  0.4395500  0.2036874  0.3275993    0.00000       Uiso       1.00
      C310          C  0.4170218  0.2115711  0.3448383    0.00000       Uiso       1.00
      H117          H  0.4075626  0.2276592  0.3522508    0.00000       Uiso       1.00
      H118          H  0.4684111  0.1759981  0.3051277    0.00000       Uiso       1.00
      C311          C  0.3107120  0.1360785  0.4713029    0.00000       Uiso       1.00
      C312          C  0.2920215  0.1338710  0.4803304    0.00000       Uiso       1.00
      C313          C  0.3136225  0.1413258  0.4855862    0.00000       Uiso       1.00
      C314          C  0.2978459  0.1444149  0.5087162    0.00000       Uiso       1.00
      C315          C  0.2789086  0.1423575  0.5181344    0.00000       Uiso       1.00
      C316          C  0.2763084  0.1370722  0.5034910    0.00000       Uiso       1.00
      H119          H  0.2622588  0.1350331  0.5101147    0.00000       Uiso       1.00
      H120          H  0.3002238  0.1487336  0.5193126    0.00000       Uiso       1.00
      C317          C  0.3659981  0.1306209  0.2928044    0.00000       Uiso       1.00
      C318          C  0.3764622  0.1233728  0.3052720    0.00000       Uiso       1.00
      C319          C  0.2976953  0.1839500  0.3506156    0.00000       Uiso       1.00
      C320          C  0.3081495  0.1766094  0.3631068    0.00000       Uiso       1.00
      C321          C  0.4522251  0.1492241  0.3159217    0.00000       Uiso       1.00
      C322          C  0.4417620  0.1367395  0.3232734    0.00000       Uiso       1.00
      C323          C  0.3324004  0.1433289  0.4763688    0.00000       Uiso       1.00
      C324          C  0.3480010  0.1402116  0.4534293    0.00000       Uiso       1.00
      C325          C  0.2895325  0.1283326  0.4659152    0.00000       Uiso       1.00
      C326          C  0.3052119  0.1251130  0.4429895    0.00000       Uiso       1.00
       N49          N  0.4549499  0.1145305  0.3124767    0.00000       Uiso       1.00
       O97          O  0.4462990  0.1035137  0.3185271    0.00000       Uiso       1.00
       O98          O  0.4741671  0.1077500  0.2977752    0.00000       Uiso       1.00
       N50          N  0.4762254  0.1399589  0.2974736    0.00000       Uiso       1.00
       O99          O  0.4861256  0.1220893  0.2892954    0.00000       Uiso       1.00
      O100          O  0.4855577  0.1504024  0.2908680    0.00000       Uiso       1.00
       N51          N  0.3017145  0.1192163  0.4282792    0.00000       Uiso       1.00
      O101          O  0.3149722  0.1163733  0.4085327    0.00000       Uiso       1.00
      O102          O  0.2856562  0.1173334  0.4362359    0.00000       Uiso       1.00
       N52          N  0.2698381  0.1257171  0.4749312    0.00000       Uiso       1.00
      O103          O  0.2677302  0.1209555  0.4625103    0.00000       Uiso       1.00
      O104          O  0.2561647  0.1283820  0.4945753    0.00000       Uiso       1.00
       N53          N  0.3678302  0.1425921  0.4444157    0.00000       Uiso       1.00
      O105          O  0.3814517  0.1399864  0.4247549    0.00000       Uiso       1.00
      O106          O  0.3700993  0.1471054  0.4568513    0.00000       Uiso       1.00
       N54          N  0.3361198  0.1488765  0.4911032    0.00000       Uiso       1.00
      O107          O  0.3522764  0.1505898  0.4831401    0.00000       Uiso       1.00
      O108          O  0.3229451  0.1516091  0.5108720    0.00000       Uiso       1.00
       N55          N  0.2736992  0.2024066  0.3598640    0.00000       Uiso       1.00
      O109          O  0.2637947  0.2106010  0.3777262    0.00000       Uiso       1.00
      O110          O  0.2643745  0.2090029  0.3494146    0.00000       Uiso       1.00
       N56          N  0.2949565  0.1874263  0.3853060    0.00000       Uiso       1.00
      O111          O  0.3035998  0.1813857  0.3963283    0.00000       Uiso       1.00
      O112          O  0.2757429  0.2021340  0.3920732    0.00000       Uiso       1.00
       N57          N  0.3792891  0.1199412  0.2705049    0.00000       Uiso       1.00
      O113          O  0.3985756  0.1054099  0.2636501    0.00000       Uiso       1.00
      O114          O  0.3706549  0.1259126  0.2594904    0.00000       Uiso       1.00
       N58          N  0.4005616  0.1051621  0.2958963    0.00000       Uiso       1.00
      O115          O  0.4098916  0.0986719  0.3063180    0.00000       Uiso       1.00
      O116          O  0.4105435  0.0970590  0.2779635    0.00000       Uiso       1.00
      C327          C  0.3751414  0.1252930  0.3389923    0.00000       Uiso       1.00
      C328          C  0.3632512  0.1337399  0.3606629    0.00000       Uiso       1.00
      C329          C  0.3410294  0.1517655  0.3678903    0.00000       Uiso       1.00
      C330          C  0.3304551  0.1594055  0.3552659    0.00000       Uiso       1.00
      C331          C  0.3422926  0.1496911  0.3344478    0.00000       Uiso       1.00
      C332          C  0.3647753  0.1327018  0.3262031    0.00000       Uiso       1.00
      H121          H  0.3925478  0.1126291  0.3321359    0.00000       Uiso       1.00
      H122          H  0.3318051  0.1599007  0.3835024    0.00000       Uiso       1.00
      C333          C  0.3921068  0.0990888  0.3719561    0.00000       Uiso       1.00
      C334          C  0.4103337  0.0893042  0.3754117    0.00000       Uiso       1.00
      C335          C  0.3890613  0.0841026  0.3677651    0.00000       Uiso       1.00
      C336          C  0.4046066  0.0609070  0.3648480    0.00000       Uiso       1.00
      C337          C  0.4233020  0.0519216  0.3669832    0.00000       Uiso       1.00
      C338          C  0.4260670  0.0661519  0.3724715    0.00000       Uiso       1.00
      H123          H  0.4124577  0.0998484  0.3801504    0.00000       Uiso       1.00
      H124          H  0.3745374  0.0904944  0.3666668    0.00000       Uiso       1.00
      C339          C  0.3866420  0.1392221  0.3661403    0.00000       Uiso       1.00
      C340          C  0.3747577  0.1609004  0.3745677    0.00000       Uiso       1.00
      C341          C  0.4088687  0.1319784  0.3481215    0.00000       Uiso       1.00
      C342          C  0.4194521  0.1445959  0.3404702    0.00000       Uiso       1.00
      C343          C  0.4076196  0.1654228  0.3501657    0.00000       Uiso       1.00
      C344          C  0.3851329  0.1736829  0.3671474    0.00000       Uiso       1.00
      H125          H  0.3573487  0.1677682  0.3872253    0.00000       Uiso       1.00
      H126          H  0.4180897  0.1163589  0.3400004    0.00000       Uiso       1.00
      C345          C  0.3577658  0.1279602  0.4008014    0.00000       Uiso       1.00
      C346          C  0.3395330  0.1245135  0.4105890    0.00000       Uiso       1.00
      C347          C  0.3608065  0.1321644  0.4157839    0.00000       Uiso       1.00
      C348          C  0.3452522  0.1351024  0.4389768    0.00000       Uiso       1.00
      C349          C  0.3265517  0.1329754  0.4479640    0.00000       Uiso       1.00
      C350          C  0.3237906  0.1274745  0.4337387    0.00000       Uiso       1.00
      H127          H  0.3374115  0.1197655  0.4000491    0.00000       Uiso       1.00
      H128          H  0.3753338  0.1332569  0.4093912    0.00000       Uiso       1.00
      C351          C  0.4446404  0.0569031  0.3748415    0.00000       Uiso       1.00
      C352          C  0.4603109  0.0339744  0.3716424    0.00000       Uiso       1.00
      C353          C  0.4018536  0.0464500  0.3597516    0.00000       Uiso       1.00
      C354          C  0.4174453  0.0235076  0.3566550    0.00000       Uiso       1.00
      C355          C  0.3734511  0.1946225  0.3764575    0.00000       Uiso       1.00
      C356          C  0.3839241  0.2070835  0.3691983    0.00000       Uiso       1.00
       N59          N  0.4137219  0.0087683  0.3511204    0.00000       Uiso       1.00
      O117          O  0.3975695  0.0167301  0.3493998    0.00000       Uiso       1.00
      O118          O  0.4268893  0.9889964  0.3484055    0.00000       Uiso       1.00
       N60          N  0.3820296  0.0554616  0.3573627    0.00000       Uiso       1.00
      O119          O  0.3796950  0.0430004  0.3529798    0.00000       Uiso       1.00
      O120          O  0.3684787  0.0751421  0.3598315    0.00000       Uiso       1.00
       N61          N  0.4800001  0.0249607  0.3742661    0.00000       Uiso       1.00
      O121          O  0.4821113  0.0373859  0.3790167    0.00000       Uiso       1.00
      O122          O  0.4936658  0.0053142  0.3716188    0.00000       Uiso       1.00
       N62          N  0.4481416  0.0716187  0.3807251    0.00000       Uiso       1.00
      O123          O  0.4641201  0.0636376  0.3827560    0.00000       Uiso       1.00
      O124          O  0.4349708  0.0913904  0.3834087    0.00000       Uiso       1.00
       N63          N  0.3493477  0.2040146  0.3946596    0.00000       Uiso       1.00
      O125          O  0.3393305  0.2220207  0.4026446    0.00000       Uiso       1.00
      O126          O  0.3400495  0.1935368  0.4012606    0.00000       Uiso       1.00
       N64          N  0.3706383  0.2293927  0.3798579    0.00000       Uiso       1.00
      O127          O  0.3513483  0.2362606  0.3943828    0.00000       Uiso       1.00
      O128          O  0.3792801  0.2404018  0.3738767    0.00000       Uiso       1.00
      C357          C  0.0000655  0.6251014  0.1249915    0.00000       Uiso       1.00
      C358          C  0.0404361  0.6559228  0.9488524    0.00000       Uiso       1.00
      C359          C  0.0555536  0.6454231  0.9568133    0.00000       Uiso       1.00
      C360          C  0.0785899  0.6372691  0.9413791    0.00000       Uiso       1.00
      C361          C  0.0863979  0.6398368  0.9182588    0.00000       Uiso       1.00
      C362          C  0.0712383  0.6505795  0.9102978    0.00000       Uiso       1.00
      C363          C  0.0482124  0.6586014  0.9257267    0.00000       Uiso       1.00
      H129          H  0.0226475  0.6620198  0.9603620    0.00000       Uiso       1.00
      H130          H  0.0362072  0.6668407  0.9199646    0.00000       Uiso       1.00
      H131          H  0.0905263  0.6289083  0.9472417    0.00000       Uiso       1.00
      H132          H  0.1042657  0.6334440  0.9066543    0.00000       Uiso       1.00
      C364          C  0.8318437  0.6805999  0.2172864    0.00000       Uiso       1.00
      C365          C  0.8238767  0.6654906  0.2298619    0.00000       Uiso       1.00
      C366          C  0.8164094  0.7036297  0.2178311    0.00000       Uiso       1.00
      C367          C  0.7932830  0.7114391  0.2305657    0.00000       Uiso       1.00
      C368          C  0.7853161  0.6962874  0.2429404    0.00000       Uiso       1.00
      C369          C  0.8007451  0.6732682  0.2425225    0.00000       Uiso       1.00
      H133          H  0.8353862  0.6477073  0.2300493    0.00000       Uiso       1.00
      H134          H  0.7949784  0.6612694  0.2520483    0.00000       Uiso       1.00
      H135          H  0.8222765  0.7155600  0.2083952    0.00000       Uiso       1.00
      H136          H  0.7816786  0.7293018  0.2306899    0.00000       Uiso       1.00
      C370          C  0.0923500  0.4569408  0.1454627    0.00000       Uiso       1.00
      C371          C  0.1049209  0.4489888  0.1559689    0.00000       Uiso       1.00
      C372          C  0.0928981  0.4414997  0.1373230    0.00000       Uiso       1.00
      C373          C  0.1056313  0.4183815  0.1399113    0.00000       Uiso       1.00
      C374          C  0.1180014  0.4104297  0.1506606    0.00000       Uiso       1.00
      C375          C  0.1175802  0.4258654  0.1586682    0.00000       Uiso       1.00
      H137          H  0.1051057  0.4605035  0.1620553    0.00000       Uiso       1.00
      H138          H  0.1271023  0.4201102  0.1669124    0.00000       Uiso       1.00
      H139          H  0.0834659  0.4473552  0.1289573    0.00000       Uiso       1.00
      H140          H  0.1057583  0.4067716  0.1335291    0.00000       Uiso       1.00
      C376          C  0.0205137  0.7174427  0.1804036    0.00000       Uiso       1.00
      C377          C  0.0310272  0.7300043  0.1652827    0.00000       Uiso       1.00
      C378          C  0.0123635  0.7180079  0.2034328    0.00000       Uiso       1.00
      C379          C  0.0149486  0.7307490  0.2112302    0.00000       Uiso       1.00
      C380          C  0.0257051  0.7431098  0.1960672    0.00000       Uiso       1.00
      C381          C  0.0337233  0.7426714  0.1730485    0.00000       Uiso       1.00
      H141          H  0.0371216  0.7301758  0.1474994    0.00000       Uiso       1.00
      H142          H  0.0419731  0.7521861  0.1610408    0.00000       Uiso       1.00
      H143          H  0.0039922  0.7085830  0.2153718    0.00000       Uiso       1.00
      H144          H  0.0085584  0.7308892  0.2290926    0.00000       Uiso       1.00
      C382          C  0.0226376  0.6338729  0.0195445    0.00000       Uiso       1.00
      C383          C  0.0322976  0.6360887  0.0285695    0.00000       Uiso       1.00
      C384          C  0.0495005  0.6413231  0.0142811    0.00000       Uiso       1.00
      C385          C  0.0568651  0.6443917  0.9911484    0.00000       Uiso       1.00
      C386          C  0.0473491  0.6423256  0.9817325    0.00000       Uiso       1.00
      C387          C  0.0300965  0.6370536  0.9963809    0.00000       Uiso       1.00
      H145          H  0.0226725  0.6350084  0.9897594    0.00000       Uiso       1.00
      H146          H  0.0698462  0.6487009  0.9805478    0.00000       Uiso       1.00
      C388          C  0.9036182  0.6573393  0.1781520    0.00000       Uiso       1.00
      C389          C  0.8945835  0.6476944  0.1990491    0.00000       Uiso       1.00
      C390          C  0.8893335  0.6745285  0.1699967    0.00000       Uiso       1.00
      C391          C  0.8661949  0.6818951  0.1826860    0.00000       Uiso       1.00
      C392          C  0.8567693  0.6723941  0.2036800    0.00000       Uiso       1.00
      C393          C  0.8714142  0.6551551  0.2115629    0.00000       Uiso       1.00
      H147          H  0.8647853  0.6477428  0.2276508    0.00000       Uiso       1.00
      H148          H  0.8555973  0.6948655  0.1759915    0.00000       Uiso       1.00
      C394          C  0.0532202  0.5286887  0.1360650    0.00000       Uiso       1.00
      C395          C  0.0741187  0.5196611  0.1338564    0.00000       Uiso       1.00
      C396          C  0.0450621  0.5144055  0.1413128    0.00000       Uiso       1.00
      C397          C  0.0577499  0.4912756  0.1444013    0.00000       Uiso       1.00
      C398          C  0.0787451  0.4818573  0.1423429    0.00000       Uiso       1.00
      C399          C  0.0866309  0.4965004  0.1370571    0.00000       Uiso       1.00
      H149          H  0.1027200  0.4898767  0.1350173    0.00000       Uiso       1.00
      H150          H  0.0510531  0.4806793  0.1487204    0.00000       Uiso       1.00
      C400          C  0.0111257  0.6782888  0.1571797    0.00000       Uiso       1.00
      C401          C  0.0089220  0.6991771  0.1475158    0.00000       Uiso       1.00
      C402          C  0.0163654  0.6701486  0.1743758    0.00000       Uiso       1.00
      C403          C  0.0194509  0.6828441  0.1817305    0.00000       Uiso       1.00
      C404          C  0.0173973  0.7038294  0.1722106    0.00000       Uiso       1.00
      C405          C  0.0121196  0.7116972  0.1549648    0.00000       Uiso       1.00
      H151          H  0.0100836  0.7277783  0.1475379    0.00000       Uiso       1.00
      H152          H  0.0237639  0.6761609  0.1947067    0.00000       Uiso       1.00
      C406          C  0.0057244  0.6283475  0.0339648    0.00000       Uiso       1.00
      C407          C  0.9984660  0.6251490  0.0568933    0.00000       Uiso       1.00
      C408          C  0.0590578  0.6433347  0.0234962    0.00000       Uiso       1.00
      C409          C  0.0517070  0.6402385  0.0464385    0.00000       Uiso       1.00
      C410          C  0.0242806  0.5236231  0.1433169    0.00000       Uiso       1.00
      C411          C  0.0117970  0.5465627  0.1402002    0.00000       Uiso       1.00
      C412          C  0.0183646  0.6493770  0.1839371    0.00000       Uiso       1.00
      C413          C  0.0152509  0.6368858  0.1765968    0.00000       Uiso       1.00
      C414          C  0.0033910  0.7071871  0.1306093    0.00000       Uiso       1.00
      C415          C  0.0001750  0.6947194  0.1233615    0.00000       Uiso       1.00
       N65          N  0.9895866  0.5555764  0.1425818    0.00000       Uiso       1.00
      O129          O  0.9785705  0.5752371  0.1399766    0.00000       Uiso       1.00
      O130          O  0.9828044  0.5431408  0.1470946    0.00000       Uiso       1.00
       N66          N  0.0150133  0.5088889  0.1488650    0.00000       Uiso       1.00
      O131          O  0.9971427  0.5168522  0.1505793    0.00000       Uiso       1.00
      O132          O  0.0254560  0.4891200  0.1515963    0.00000       Uiso       1.00
       N67          N  0.9942862  0.7040946  0.1051513    0.00000       Uiso       1.00
      O133          O  0.9914463  0.6936729  0.0986612    0.00000       Uiso       1.00
      O134          O  0.9924066  0.7220277  0.0970490    0.00000       Uiso       1.00
       N68          N  0.0007799  0.7294863  0.1199298    0.00000       Uiso       1.00
      O135          O  0.9960246  0.7363408  0.1053989    0.00000       Uiso       1.00
      O136          O  0.0034419  0.7405013  0.1259017    0.00000       Uiso       1.00
       N69          N  0.0176270  0.6146867  0.1874134    0.00000       Uiso       1.00
      O137          O  0.0150243  0.6036644  0.1813730    0.00000       Uiso       1.00
      O138          O  0.0221338  0.6079195  0.2021200    0.00000       Uiso       1.00
       N70          N  0.0239041  0.6401290  0.2023932    0.00000       Uiso       1.00
      O139          O  0.0256141  0.6222670  0.2105874    0.00000       Uiso       1.00
      O140          O  0.0266335  0.6505781  0.2089886    0.00000       Uiso       1.00
       N71          N  0.0775209  0.6488689  0.0087566    0.00000       Uiso       1.00
      O141          O  0.0857116  0.6505897  0.0167178    0.00000       Uiso       1.00
      O142          O  0.0841252  0.6515832  0.9889852    0.00000       Uiso       1.00
       N72          N  0.0625197  0.6426274  0.0554494    0.00000       Uiso       1.00
      O143          O  0.0564704  0.6400397  0.0751123    0.00000       Uiso       1.00
      O144          O  0.0772329  0.6471284  0.0430093    0.00000       Uiso       1.00
       N73          N  0.9950486  0.6257236  0.0249517    0.00000       Uiso       1.00
      O145          O  0.9805119  0.6209732  0.0373772    0.00000       Uiso       1.00
      O146          O  0.0010289  0.6283714  0.0053055    0.00000       Uiso       1.00
       N74          N  0.9802488  0.6192655  0.0716092    0.00000       Uiso       1.00
      O147          O  0.9737498  0.6164407  0.0913581    0.00000       Uiso       1.00
      O148          O  0.9721493  0.6173761  0.0636548    0.00000       Uiso       1.00
      C416          C  0.0003717  0.6245793  0.0892937    0.00000       Uiso       1.00
      C417          C  0.0088142  0.6280350  0.0990778    0.00000       Uiso       1.00
      C418          C  0.0268463  0.6322256  0.0840912    0.00000       Uiso       1.00
      C419          C  0.0344967  0.6351423  0.0608958    0.00000       Uiso       1.00
      C420          C  0.0247864  0.6330070  0.0519110    0.00000       Uiso       1.00
      C421          C  0.0077909  0.6275191  0.0661416    0.00000       Uiso       1.00
      H153          H  0.9877031  0.6198409  0.0998382    0.00000       Uiso       1.00
      H154          H  0.0349786  0.6333239  0.0904826    0.00000       Uiso       1.00
      C422          C  0.9741449  0.6338516  0.1392116    0.00000       Uiso       1.00
      C423          C  0.9643507  0.6254246  0.1608898    0.00000       Uiso       1.00
      C424          C  0.9591616  0.6518705  0.1319687    0.00000       Uiso       1.00
      C425          C  0.9359602  0.6595221  0.1445868    0.00000       Uiso       1.00
      C426          C  0.9269657  0.6498269  0.1654136    0.00000       Uiso       1.00
      C427          C  0.9411926  0.6328451  0.1736729    0.00000       Uiso       1.00
      H155          H  0.9748921  0.6127671  0.1677570    0.00000       Uiso       1.00
      H156          H  0.9655601  0.6599914  0.1163493    0.00000       Uiso       1.00
      C428          C  0.0142840  0.5991902  0.1279483    0.00000       Uiso       1.00
      C429          C  0.0359640  0.5894024  0.1245007    0.00000       Uiso       1.00
      C430          C  0.0070387  0.5842079  0.1321530    0.00000       Uiso       1.00
      C431          C  0.0196554  0.5610150  0.1350905    0.00000       Uiso       1.00
      C432          C  0.0404834  0.5520276  0.1329625    0.00000       Uiso       1.00
      C433          C  0.0487456  0.5662528  0.1274612    0.00000       Uiso       1.00
      H157          H  0.0428337  0.5999422  0.1197523    0.00000       Uiso       1.00
      H158          H  0.9914185  0.5906006  0.1332462    0.00000       Uiso       1.00
      C434          C  0.0030186  0.6393287  0.1337284    0.00000       Uiso       1.00
      C435          C  0.9995753  0.6609992  0.1252817    0.00000       Uiso       1.00
      C436          C  0.0072149  0.6321017  0.1517534    0.00000       Uiso       1.00
      C437          C  0.0101492  0.6447262  0.1593933    0.00000       Uiso       1.00
      C438          C  0.0080262  0.6655441  0.1496791    0.00000       Uiso       1.00
      C439          C  0.0025328  0.6737885  0.1326903    0.00000       Uiso       1.00
      H159          H  0.9948327  0.6678554  0.1126183    0.00000       Uiso       1.00
      H160          H  0.0083041  0.6164897  0.1598884    0.00000       Uiso       1.00
      C440          C  0.9319345  0.6235353  0.1946123    0.00000       Uiso       1.00
      C441          C  0.9090002  0.6307948  0.2070739    0.00000       Uiso       1.00
      C442          C  0.9215064  0.6767189  0.1367312    0.00000       Uiso       1.00
      C443          C  0.8985583  0.6840709  0.1492164    0.00000       Uiso       1.00
      C444          C  0.0696864  0.5570018  0.1250985    0.00000       Uiso       1.00
      C445          C  0.0821464  0.5340761  0.1283176    0.00000       Uiso       1.00
       N75          N  0.8838228  0.7025191  0.1399521    0.00000       Uiso       1.00
      O149          O  0.8917924  0.7106971  0.1220826    0.00000       Uiso       1.00
      O150          O  0.8640468  0.7091243  0.1503956    0.00000       Uiso       1.00
       N76          N  0.9305277  0.6875153  0.1145223    0.00000       Uiso       1.00
      O151          O  0.9180694  0.7022997  0.1077994    0.00000       Uiso       1.00
      O152          O  0.9502133  0.6813843  0.1034486    0.00000       Uiso       1.00
       N77          N  0.8999767  0.6201354  0.2293828    0.00000       Uiso       1.00
      O153          O  0.9123992  0.6056104  0.2362500    0.00000       Uiso       1.00
      O154          O  0.8803252  0.6261176  0.2403929    0.00000       Uiso       1.00
       N78          N  0.9466463  0.6053332  0.2040035    0.00000       Uiso       1.00
      O155          O  0.9386573  0.5973484  0.2220095    0.00000       Uiso       1.00
      O156          O  0.9664229  0.5987313  0.1935248    0.00000       Uiso       1.00
       N79          N  0.0790809  0.5717120  0.1192012    0.00000       Uiso       1.00
      O157          O  0.0970880  0.5637289  0.1171768    0.00000       Uiso       1.00
      O158          O  0.0686039  0.5914811  0.1164995    0.00000       Uiso       1.00
       N80          N  0.1044570  0.5250599  0.1257010    0.00000       Uiso       1.00
      O159          O  0.1113268  0.5374807  0.1209389    0.00000       Uiso       1.00
      O160          O  0.1154653  0.5054160  0.1283663    0.00000       Uiso       1.00
      C446          C  0.2500134  0.9995375  0.9999875    0.00000       Uiso       1.00
      C447          C  0.4261591  0.8637162  0.9288062    0.00000       Uiso       1.00
      C448          C  0.4182093  0.8867859  0.9241839    0.00000       Uiso       1.00
      C449          C  0.4336573  0.8943707  0.9092976    0.00000       Uiso       1.00
      C450          C  0.4567804  0.8790498  0.8989226    0.00000       Uiso       1.00
      C451          C  0.4647302  0.8559378  0.9033443    0.00000       Uiso       1.00
      C452          C  0.4492875  0.8483582  0.9183521    0.00000       Uiso       1.00
      H161          H  0.4146390  0.8574505  0.9405009    0.00000       Uiso       1.00
      H162          H  0.4550408  0.8305978  0.9221216    0.00000       Uiso       1.00
      H163          H  0.4278036  0.9121629  0.9057183    0.00000       Uiso       1.00
      H164          H  0.4683957  0.8852996  0.8874447    0.00000       Uiso       1.00
      C453          C  0.1576201  0.9237379  0.1127374    0.00000       Uiso       1.00
      C454          C  0.1450477  0.9283608  0.1358071    0.00000       Uiso       1.00
      C455          C  0.1570585  0.9088520  0.1051522    0.00000       Uiso       1.00
      C456          C  0.1443102  0.8984777  0.1204729    0.00000       Uiso       1.00
      C457          C  0.1319385  0.9028997  0.1435849    0.00000       Uiso       1.00
      C458          C  0.1323734  0.9179073  0.1511648    0.00000       Uiso       1.00
      H165          H  0.1448732  0.9400552  0.1420730    0.00000       Uiso       1.00
      H166          H  0.1228504  0.9216770  0.1689253    0.00000       Uiso       1.00
      H167          H  0.1664917  0.9052724  0.0873600    0.00000       Uiso       1.00
      H168          H  0.1441729  0.8869999  0.1142228    0.00000       Uiso       1.00
      C459          C  0.2296571  0.1122860  0.0757887    0.00000       Uiso       1.00
      C460          C  0.2191597  0.1353557  0.0711664    0.00000       Uiso       1.00
      C461          C  0.2378042  0.1047007  0.0906746    0.00000       Uiso       1.00
      C462          C  0.2352316  0.1200212  0.1010492    0.00000       Uiso       1.00
      C463          C  0.2244910  0.1431333  0.0966276    0.00000       Uiso       1.00
      C464          C  0.2164762  0.1507133  0.0816202    0.00000       Uiso       1.00
      H169          H  0.2130682  0.1416217  0.0594720    0.00000       Uiso       1.00
      H170          H  0.2082386  0.1684737  0.0778508    0.00000       Uiso       1.00
      H171          H  0.2461633  0.0869084  0.0942538    0.00000       Uiso       1.00
      H172          H  0.2416191  0.1137710  0.1125269    0.00000       Uiso       1.00
      C465          C  0.1945674  0.0753399  0.8872401    0.00000       Uiso       1.00
      C466          C  0.2096875  0.0707171  0.8641704    0.00000       Uiso       1.00
      C467          C  0.1715341  0.0902264  0.8948258    0.00000       Uiso       1.00
      C468          C  0.1637319  0.1006011  0.8795054    0.00000       Uiso       1.00
      C469          C  0.1788944  0.0961790  0.8563933    0.00000       Uiso       1.00
      C470          C  0.2019171  0.0811710  0.8488130    0.00000       Uiso       1.00
      H173          H  0.2274737  0.0590223  0.8579043    0.00000       Uiso       1.00
      H174          H  0.2139243  0.0774012  0.8310525    0.00000       Uiso       1.00
      H175          H  0.1595955  0.0938060  0.9126180    0.00000       Uiso       1.00
      H176          H  0.1458664  0.1120793  0.8857558    0.00000       Uiso       1.00
      C471          C  0.3554682  0.9166363  0.9686459    0.00000       Uiso       1.00
      C472          C  0.3464462  0.9353118  0.9567713    0.00000       Uiso       1.00
      C473          C  0.3607399  0.9382082  0.9343361    0.00000       Uiso       1.00
      C474          C  0.3838747  0.9224324  0.9239039    0.00000       Uiso       1.00
      C475          C  0.3932875  0.9035099  0.9354849    0.00000       Uiso       1.00
      C476          C  0.3786339  0.9009238  0.9580074    0.00000       Uiso       1.00
      H177          H  0.3852531  0.8868858  0.9674756    0.00000       Uiso       1.00
      H178          H  0.3944792  0.9247993  0.9066154    0.00000       Uiso       1.00
      C477          C  0.1967967  0.9563232  0.0642123    0.00000       Uiso       1.00
      C478          C  0.1758996  0.9681986  0.0828880    0.00000       Uiso       1.00
      C479          C  0.2049383  0.9338883  0.0613154    0.00000       Uiso       1.00
      C480          C  0.1922354  0.9234567  0.0770909    0.00000       Uiso       1.00
      C481          C  0.1712412  0.9350382  0.0960136    0.00000       Uiso       1.00
      C482          C  0.1633722  0.9575607  0.0986002    0.00000       Uiso       1.00
      H179          H  0.1472845  0.9670293  0.1126383    0.00000       Uiso       1.00
      H180          H  0.1989197  0.9061682  0.0747237    0.00000       Uiso       1.00
      C483          C  0.2390060  0.0637614  0.0432024    0.00000       Uiso       1.00
      C484          C  0.2412277  0.0824366  0.0313275    0.00000       Uiso       1.00
      C485          C  0.2337610  0.0608649  0.0656374    0.00000       Uiso       1.00
      C486          C  0.2306883  0.0766403  0.0760693    0.00000       Uiso       1.00
      C487          C  0.2327600  0.0955624  0.0644881    0.00000       Uiso       1.00
      C488          C  0.2380427  0.0981487  0.0419656    0.00000       Uiso       1.00
      H181          H  0.2400925  0.1121864  0.0324973    0.00000       Uiso       1.00
      H182          H  0.2263709  0.0742734  0.0933578    0.00000       Uiso       1.00
      C489          C  0.2178052  0.0427534  0.9357642    0.00000       Uiso       1.00
      C490          C  0.2274589  0.0308783  0.9170887    0.00000       Uiso       1.00
      C491          C  0.2006146  0.0651885  0.9386613    0.00000       Uiso       1.00
      C492          C  0.1932555  0.0756205  0.9228861    0.00000       Uiso       1.00
      C493          C  0.2027653  0.0640392  0.9039636    0.00000       Uiso       1.00
      C494          C  0.2200056  0.0415166  0.9013768    0.00000       Uiso       1.00
      H183          H  0.2274245  0.0320481  0.8873388    0.00000       Uiso       1.00
      H184          H  0.1802839  0.0929091  0.9252534    0.00000       Uiso       1.00
      C495          C  0.3410427  0.9141613  0.9910823    0.00000       Uiso       1.00
      C496          C  0.3181129  0.9298391  0.0015384    0.00000       Uiso       1.00
      C497          C  0.3515278  0.9569713  0.9227682    0.00000       Uiso       1.00
      C498          C  0.3285834  0.9725712  0.9332142    0.00000       Uiso       1.00
      C499          C  0.2317438  0.0421021  0.0772056    0.00000       Uiso       1.00
      C500          C  0.2348449  0.0265026  0.0667599    0.00000       Uiso       1.00
      C501          C  0.1910633  0.0767568  0.9574245    0.00000       Uiso       1.00
      C502          C  0.1984081  0.0663110  0.9730238    0.00000       Uiso       1.00
      C503          C  0.2443598  0.0084419  0.9146130    0.00000       Uiso       1.00
      C504          C  0.2516124  0.9979857  0.9302911    0.00000       Uiso       1.00
       N81          N  0.2324497  0.0066899  0.0799605    0.00000       Uiso       1.00
      O161          O  0.2350417  0.9930691  0.0713246    0.00000       Uiso       1.00
      O162          O  0.2279394  0.0044322  0.0991729    0.00000       Uiso       1.00
       N82          N  0.2261981  0.0383979  0.1012006    0.00000       Uiso       1.00
      O163          O  0.2244726  0.0222542  0.1111114    0.00000       Uiso       1.00
      O164          O  0.2234802  0.0515714  0.1105180    0.00000       Uiso       1.00
       N83          N  0.2698162  0.9738874  0.9268084    0.00000       Uiso       1.00
      O165          O  0.2763098  0.9645646  0.9400653    0.00000       Uiso       1.00
      O166          O  0.2779098  0.9638990  0.9107628    0.00000       Uiso       1.00
       N84          N  0.2550289  0.9951426  0.8949347    0.00000       Uiso       1.00
      O167          O  0.2695549  0.9758574  0.8928383    0.00000       Uiso       1.00
      O168          O  0.2490527  0.0037699  0.8812628    0.00000       Uiso       1.00
       N85          N  0.1876023  0.0795117  0.9928370    0.00000       Uiso       1.00
      O169          O  0.1936473  0.0708750  0.0064571    0.00000       Uiso       1.00
      O170          O  0.1729003  0.0987245  0.9950947    0.00000       Uiso       1.00
       N86          N  0.1726134  0.1007520  0.9611292    0.00000       Uiso       1.00
      O171          O  0.1644278  0.1106628  0.9772733    0.00000       Uiso       1.00
      O172          O  0.1660144  0.1100698  0.9479555    0.00000       Uiso       1.00
       N87          N  0.3662732  0.9606754  0.8987731    0.00000       Uiso       1.00
      O173          O  0.3583147  0.9768194  0.8888625    0.00000       Uiso       1.00
      O174          O  0.3860465  0.9475016  0.8894554    0.00000       Uiso       1.00
       N88          N  0.3195759  0.9923843  0.9200138    0.00000       Uiso       1.00
      O175          O  0.2999108  0.0060055  0.9286501    0.00000       Uiso       1.00
      O176          O  0.3320206  0.9946419  0.9008014    0.00000       Uiso       1.00
       N89          N  0.3500533  0.8944824  0.0043807    0.00000       Uiso       1.00
      O177          O  0.3376235  0.8923866  0.0236659    0.00000       Uiso       1.00
      O178          O  0.3697005  0.8808101  0.9957535    0.00000       Uiso       1.00
       N90          N  0.3033914  0.9263572  0.0256365    0.00000       Uiso       1.00
      O179          O  0.2836406  0.9396147  0.0349595    0.00000       Uiso       1.00
      O180          O  0.3113434  0.9103112  0.0356244    0.00000       Uiso       1.00
      C505          C  0.2857129  0.9641444  0.0002026    0.00000       Uiso       1.00
      C506          C  0.2759300  0.9823628  0.9883060    0.00000       Uiso       1.00
      C507          C  0.2909228  0.9853899  0.9660849    0.00000       Uiso       1.00
      C508          C  0.3141207  0.9698363  0.9555187    0.00000       Uiso       1.00
      C509          C  0.3231024  0.9511507  0.9673632    0.00000       Uiso       1.00
      C510          C  0.3088667  0.9484037  0.9898444    0.00000       Uiso       1.00
      H185          H  0.2751649  0.9620340  0.0176076    0.00000       Uiso       1.00
      H186          H  0.2845344  0.9999060  0.9568549    0.00000       Uiso       1.00
      C511          C  0.2357787  0.9878560  0.0171620    0.00000       Uiso       1.00
      C512          C  0.2140996  0.9997531  0.0353798    0.00000       Uiso       1.00
      C513          C  0.2430072  0.9656349  0.0141344    0.00000       Uiso       1.00
      C514          C  0.2303754  0.9550694  0.0296878    0.00000       Uiso       1.00
      C515          C  0.2095487  0.9669145  0.0483736    0.00000       Uiso       1.00
      C516          C  0.2013030  0.9893957  0.0511210    0.00000       Uiso       1.00
      H187          H  0.2072420  0.0171587  0.0374905    0.00000       Uiso       1.00
      H188          H  0.2586253  0.9564052  0.9996182    0.00000       Uiso       1.00
      C517          C  0.2470745  0.0167116  0.0116687    0.00000       Uiso       1.00
      C518          C  0.2505352  0.0349297  0.9997718    0.00000       Uiso       1.00
      C519          C  0.2428734  0.0136844  0.0338897    0.00000       Uiso       1.00
      C520          C  0.2399517  0.0292376  0.0444556    0.00000       Uiso       1.00
      C521          C  0.2420927  0.0479229  0.0326109    0.00000       Uiso       1.00
      C522          C  0.2475913  0.0506699  0.0101297    0.00000       Uiso       1.00
      H189          H  0.2552819  0.0370400  0.9823669    0.00000       Uiso       1.00
      H190          H  0.2417711  0.9991679  0.0431199    0.00000       Uiso       1.00
      C523          C  0.2412708  0.0112194  0.9828134    0.00000       Uiso       1.00
      C524          C  0.2497069  0.9993219  0.9645958    0.00000       Uiso       1.00
      C525          C  0.2232505  0.0334406  0.9858413    0.00000       Uiso       1.00
      C526          C  0.2156062  0.0440065  0.9702882    0.00000       Uiso       1.00
      C527          C  0.2253103  0.0321617  0.9516025    0.00000       Uiso       1.00
      C528          C  0.2422934  0.0096804  0.9488549    0.00000       Uiso       1.00
      H191          H  0.2623655  0.9819169  0.9624850    0.00000       Uiso       1.00
      H192          H  0.2151236  0.0426701  0.0003574    0.00000       Uiso       1.00
      C529          C  0.1803629  0.0010907  0.0696850    0.00000       Uiso       1.00
      C530          C  0.1678884  0.9906349  0.0853634    0.00000       Uiso       1.00
      C531          C  0.2382172  0.9327651  0.0269525    0.00000       Uiso       1.00
      C532          C  0.2257186  0.9223197  0.0425520    0.00000       Uiso       1.00
      C533          C  0.2499665  0.0692342  0.9984355    0.00000       Uiso       1.00
      C534          C  0.2467637  0.0849116  0.0088912    0.00000       Uiso       1.00
       N91          N  0.2349685  0.8983247  0.0388475    0.00000       Uiso       1.00
      O181          O  0.2528381  0.8884136  0.0227033    0.00000       Uiso       1.00
      O182          O  0.2245132  0.8890073  0.0520215    0.00000       Uiso       1.00
       N92          N  0.2604256  0.9195641  0.0071392    0.00000       Uiso       1.00
      O183          O  0.2671366  0.9003872  0.0048197    0.00000       Uiso       1.00
      O184          O  0.2715100  0.9281616  0.9935816    0.00000       Uiso       1.00
       N93          N  0.1455795  0.0039343  0.1050419    0.00000       Uiso       1.00
      O185          O  0.1387240  0.0232194  0.1071380    0.00000       Uiso       1.00
      O186          O  0.1345586  0.9953074  0.1187141    0.00000       Uiso       1.00
       N94          N  0.1709860  0.0251888  0.0731674    0.00000       Uiso       1.00
      O187          O  0.1529799  0.0352169  0.0891379    0.00000       Uiso       1.00
      O188          O  0.1814764  0.0344716  0.0599896    0.00000       Uiso       1.00
       N95          N  0.2558614  0.0727162  0.9743374    0.00000       Uiso       1.00
      O189          O  0.2578972  0.0886862  0.9643096    0.00000       Uiso       1.00
      O190          O  0.2585497  0.0595379  0.9650540    0.00000       Uiso       1.00
       N96          N  0.2493933  0.1045903  0.9955925    0.00000       Uiso       1.00
      O191          O  0.2541529  0.1066861  0.9763075    0.00000       Uiso       1.00
      O192          O  0.2467422  0.1182621  0.0042195    0.00000       Uiso       1.00
      C535          C  0.6517243  0.3082173  0.6204566    0.00000       Uiso       1.00
      C536          C  0.6641086  0.2860267  0.6253557    0.00000       Uiso       1.00
      C537          C  0.6664828  0.2684012  0.6187178    0.00000       Uiso       1.00
      C538          C  0.6797673  0.2463374  0.6229358    0.00000       Uiso       1.00
      C539          C  0.6921793  0.2412606  0.6325907    0.00000       Uiso       1.00
      C540          C  0.6898185  0.2591914  0.6389115    0.00000       Uiso       1.00
      C541          C  0.6746310  0.2815135  0.6370865    0.00000       Uiso       1.00
      O193          O  0.6412421  0.3154610  0.6083195    0.00000       Uiso       1.00
      H193          H  0.7008259  0.2558284  0.6440472    0.00000       Uiso       1.00
      C542          C  0.7103270  0.2944334  0.7229944    0.00000       Uiso       1.00
      C543          C  0.7005252  0.2993426  0.7106162    0.00000       Uiso       1.00
      C544          C  0.6853302  0.3212500  0.7082558    0.00000       Uiso       1.00
      C545          C  0.6763829  0.3258790  0.6950814    0.00000       Uiso       1.00
      C546          C  0.6835425  0.3088966  0.6827788    0.00000       Uiso       1.00
      C547          C  0.6991523  0.2869951  0.6850790    0.00000       Uiso       1.00
      C548          C  0.7064347  0.2816430  0.7001551    0.00000       Uiso       1.00
      O194          O  0.7069687  0.3098882  0.7334870    0.00000       Uiso       1.00
      H194          H  0.6803085  0.3346989  0.7168408    0.00000       Uiso       1.00
      H195          H  0.6639995  0.3428487  0.6945271    0.00000       Uiso       1.00
      H196          H  0.7066880  0.2742055  0.6741377    0.00000       Uiso       1.00
      C549          C  0.7549399  0.1471865  0.6645171    0.00000       Uiso       1.00
      C550          C  0.7500696  0.1644441  0.6743023    0.00000       Uiso       1.00
      C551          C  0.7568017  0.1600798  0.6894875    0.00000       Uiso       1.00
      C552          C  0.7525135  0.1775557  0.6984248    0.00000       Uiso       1.00
      C553          C  0.7426931  0.1996798  0.6912651    0.00000       Uiso       1.00
      C554          C  0.7363712  0.2036773  0.6756743    0.00000       Uiso       1.00
      C555          C  0.7382797  0.1866772  0.6684082    0.00000       Uiso       1.00
      O195          O  0.7669821  0.1246140  0.6679878    0.00000       Uiso       1.00
      H197          H  0.7652226  0.1430624  0.6944954    0.00000       Uiso       1.00
      H198          H  0.7571220  0.1735019  0.7107943    0.00000       Uiso       1.00
      H199          H  0.7311133  0.2198579  0.6681179    0.00000       Uiso       1.00
      C556          C  0.7484189  0.1514206  0.6495111    0.00000       Uiso       1.00
      C557          C  0.7358534  0.1732454  0.6440569    0.00000       Uiso       1.00
      C558          C  0.7291265  0.1776730  0.6288362    0.00000       Uiso       1.00
      C559          C  0.7157641  0.1995991  0.6244224    0.00000       Uiso       1.00
      C560          C  0.7075756  0.2175820  0.6361810    0.00000       Uiso       1.00
      C561          C  0.7142599  0.2128052  0.6516619    0.00000       Uiso       1.00
      C562          C  0.7296928  0.1911281  0.6545069    0.00000       Uiso       1.00
      O196          O  0.7550213  0.1321070  0.6415963    0.00000       Uiso       1.00
      H200          H  0.7064065  0.2258064  0.6625278    0.00000       Uiso       1.00
      C563          C  0.7253096  0.2729142  0.7252705    0.00000       Uiso       1.00
      C564          C  0.7307598  0.2549098  0.7160153    0.00000       Uiso       1.00
      C565          C  0.7459725  0.2330129  0.7183725    0.00000       Uiso       1.00
      C566          C  0.7505451  0.2151732  0.7096971    0.00000       Uiso       1.00
      C567          C  0.7389111  0.2186900  0.6997551    0.00000       Uiso       1.00
      C568          C  0.7233601  0.2408376  0.6978968    0.00000       Uiso       1.00
      C569          C  0.7203749  0.2591546  0.7042521    0.00000       Uiso       1.00
      O197          O  0.7333548  0.2714854  0.7379033    0.00000       Uiso       1.00
      H201          H  0.7544218  0.2298630  0.7267944    0.00000       Uiso       1.00
      H202          H  0.7631056  0.1986877  0.7110241    0.00000       Uiso       1.00
      H203          H  0.7125647  0.2438220  0.6926479    0.00000       Uiso       1.00
      C570          C  0.6495026  0.3254622  0.6269774    0.00000       Uiso       1.00
      C571          C  0.6587640  0.3216657  0.6395195    0.00000       Uiso       1.00
      C572          C  0.6564177  0.3392399  0.6461883    0.00000       Uiso       1.00
      C573          C  0.6650960  0.3351575  0.6594487    0.00000       Uiso       1.00
      C574          C  0.6750401  0.3135913  0.6675645    0.00000       Uiso       1.00
      C575          C  0.6768965  0.2961795  0.6609675    0.00000       Uiso       1.00
      C576          C  0.6705280  0.2995430  0.6456466    0.00000       Uiso       1.00
      O198          O  0.6369457  0.3461678  0.6203261    0.00000       Uiso       1.00
      H204          H  0.6479957  0.3560931  0.6408738    0.00000       Uiso       1.00
      H205          H  0.6637675  0.3490525  0.6633596    0.00000       Uiso       1.00
      H206          H  0.6821463  0.2801303  0.6687543    0.00000       Uiso       1.00
        B1          B  0.6319100  0.3395140  0.6084037    0.00000       Uiso       1.00
        B2          B  0.7216361  0.2950941  0.7429555    0.00000       Uiso       1.00
        B3          B  0.7668081  0.1152622  0.6533738    0.00000       Uiso       1.00
      H207          H  0.6579198  0.2716767  0.6104059    0.00000       Uiso       1.00
      H208          H  0.6803542  0.2333881  0.6183192    0.00000       Uiso       1.00
      H209          H  0.7343518  0.1641778  0.6201887    0.00000       Uiso       1.00
      H210          H  0.7117767  0.2022103  0.6119050    0.00000       Uiso       1.00
      C577          C  0.5804027  0.6917782  0.3795394    0.00000       Uiso       1.00
      C578          C  0.5754957  0.7139686  0.3746401    0.00000       Uiso       1.00
      C579          C  0.5536061  0.7315946  0.3812783    0.00000       Uiso       1.00
      C580          C  0.5490448  0.7536581  0.3770602    0.00000       Uiso       1.00
      C581          C  0.5660355  0.7587343  0.3674048    0.00000       Uiso       1.00
      C582          C  0.5879266  0.7408032  0.3610837    0.00000       Uiso       1.00
      C583          C  0.5932361  0.7184813  0.3629088    0.00000       Uiso       1.00
      O199          O  0.5650265  0.6845350  0.3916769    0.00000       Uiso       1.00
      H211          H  0.6007072  0.7441657  0.3559476    0.00000       Uiso       1.00
      C584          C  0.7277632  0.7055579  0.2769980    0.00000       Uiso       1.00
      C585          C  0.7104918  0.7006493  0.2893768    0.00000       Uiso       1.00
      C586          C  0.7148437  0.6787421  0.2917373    0.00000       Uiso       1.00
      C587          C  0.6973504  0.6741136  0.3049122    0.00000       Uiso       1.00
      C588          C  0.6752248  0.6910963  0.3172150    0.00000       Uiso       1.00
      C589          C  0.6712334  0.7129976  0.3149146    0.00000       Uiso       1.00
      C590          C  0.6882403  0.7183492  0.2998380    0.00000       Uiso       1.00
      O200          O  0.7503526  0.6901027  0.2665052    0.00000       Uiso       1.00
      H212          H  0.7318560  0.6652929  0.2831521    0.00000       Uiso       1.00
      H213          H  0.7013822  0.6571441  0.3054666    0.00000       Uiso       1.00
      H214          H  0.6550380  0.7257874  0.3258561    0.00000       Uiso       1.00
      C591          C  0.5666497  0.8528071  0.3354774    0.00000       Uiso       1.00
      C592          C  0.5888224  0.8355492  0.3256918    0.00000       Uiso       1.00
      C593          C  0.6063759  0.8399131  0.3105063    0.00000       Uiso       1.00
      C594          C  0.6285013  0.8224367  0.3015687    0.00000       Uiso       1.00
      C595          C  0.6336452  0.8003128  0.3087284    0.00000       Uiso       1.00
      C596          C  0.6157296  0.7963157  0.3243196    0.00000       Uiso       1.00
      C597          C  0.5933715  0.8133162  0.3315861    0.00000       Uiso       1.00
      O201          O  0.5595902  0.8753796  0.3320066    0.00000       Uiso       1.00
      H215          H  0.6027876  0.8569303  0.3054983    0.00000       Uiso       1.00
      H216          H  0.6414258  0.8264902  0.2891988    0.00000       Uiso       1.00
      H217          H  0.6190957  0.7801352  0.3318761    0.00000       Uiso       1.00
      C598          C  0.5493562  0.8485736  0.3504838    0.00000       Uiso       1.00
      C599          C  0.5531611  0.8267489  0.3559382    0.00000       Uiso       1.00
      C600          C  0.5356407  0.8223219  0.3711593    0.00000       Uiso       1.00
      C601          C  0.5397906  0.8003959  0.3755731    0.00000       Uiso       1.00
      C602          C  0.5613438  0.7824126  0.3638143    0.00000       Uiso       1.00
      C603          C  0.5787326  0.7871891  0.3483331    0.00000       Uiso       1.00
      C604          C  0.5753336  0.8088659  0.3454878    0.00000       Uiso       1.00
      O202          O  0.5287300  0.8678874  0.3583988    0.00000       Uiso       1.00
      H218          H  0.5947465  0.7741877  0.3374670    0.00000       Uiso       1.00
      C605          C  0.7235029  0.7270769  0.2747218    0.00000       Uiso       1.00
      C606          C  0.7016931  0.7450817  0.2839774    0.00000       Uiso       1.00
      C607          C  0.6973664  0.7669783  0.2816199    0.00000       Uiso       1.00
      C608          C  0.6754236  0.7848184  0.2902956    0.00000       Uiso       1.00
      C609          C  0.6573637  0.7813022  0.3002381    0.00000       Uiso       1.00
      C610          C  0.6621019  0.7591548  0.3020965    0.00000       Uiso       1.00
      C611          C  0.6837893  0.7408373  0.2957410    0.00000       Uiso       1.00
      O203          O  0.7427526  0.7285051  0.2620886    0.00000       Uiso       1.00
      H219          H  0.7110879  0.7701277  0.2731977    0.00000       Uiso       1.00
      H220          H  0.6728257  0.8013036  0.2889685    0.00000       Uiso       1.00
      H221          H  0.6490415  0.7561709  0.3073459    0.00000       Uiso       1.00
      C612          C  0.6019471  0.6745329  0.3730182    0.00000       Uiso       1.00
      C613          C  0.6199545  0.6783288  0.3604757    0.00000       Uiso       1.00
      C614          C  0.6418516  0.6607542  0.3538065    0.00000       Uiso       1.00
      C615          C  0.6597084  0.6648360  0.3405457    0.00000       Uiso       1.00
      C616          C  0.6562020  0.6864022  0.3324298    0.00000       Uiso       1.00
      C617          C  0.6340494  0.7038144  0.3390271    0.00000       Uiso       1.00
      C618          C  0.6157231  0.7004513  0.3543484    0.00000       Uiso       1.00
      O204          O  0.6034442  0.6538275  0.3796697    0.00000       Uiso       1.00
      H222          H  0.6449682  0.6439012  0.3591211    0.00000       Uiso       1.00
      H223          H  0.6761860  0.6509408  0.3366345    0.00000       Uiso       1.00
      H224          H  0.6310368  0.7198636  0.3312403    0.00000       Uiso       1.00
        B4          B  0.5798318  0.6604819  0.3915925    0.00000       Uiso       1.00
        B5          B  0.7596948  0.7048963  0.2570363    0.00000       Uiso       1.00
        B6          B  0.5354499  0.8847318  0.3466210    0.00000       Uiso       1.00
      H225          H  0.5400062  0.7283195  0.3895906    0.00000       Uiso       1.00
      H226          H  0.5320655  0.7666078  0.3816771    0.00000       Uiso       1.00
      H227          H  0.5187231  0.8358173  0.3798069    0.00000       Uiso       1.00
      H228          H  0.5258966  0.7977851  0.3880908    0.00000       Uiso       1.00
      C619          C  0.5957482  0.3375258  0.1472386    0.00000       Uiso       1.00
      C620          C  0.5818416  0.3292511  0.1645048    0.00000       Uiso       1.00
      C621          C  0.5752493  0.3182748  0.1601838    0.00000       Uiso       1.00
      C622          C  0.5622084  0.3091886  0.1776706    0.00000       Uiso       1.00
      C623          C  0.5566294  0.3096610  0.1997315    0.00000       Uiso       1.00
      C624          C  0.5636636  0.3205465  0.2037008    0.00000       Uiso       1.00
      C625          C  0.5746989  0.3318488  0.1867240    0.00000       Uiso       1.00
      O205          O  0.6046769  0.3357526  0.1246734    0.00000       Uiso       1.00
      H229          H  0.5801814  0.3168985  0.1431973    0.00000       Uiso       1.00
      H230          H  0.5567483  0.3016742  0.1736905    0.00000       Uiso       1.00
      H231          H  0.5617230  0.3191223  0.2198340    0.00000       Uiso       1.00
      C626          C  0.5374471  0.3820255  0.3082347    0.00000       Uiso       1.00
      C627          C  0.5457322  0.3786497  0.2860569    0.00000       Uiso       1.00
      C628          C  0.5567167  0.3895520  0.2684933    0.00000       Uiso       1.00
      C629          C  0.5658132  0.3850904  0.2463700    0.00000       Uiso       1.00
      C630          C  0.5653431  0.3686039  0.2412630    0.00000       Uiso       1.00
      C631          C  0.5544494  0.3576116  0.2591778    0.00000       Uiso       1.00
      C632          C  0.5431367  0.3635680  0.2815107    0.00000       Uiso       1.00
      O206          O  0.5392168  0.3956693  0.3153910    0.00000       Uiso       1.00
      H232          H  0.5580912  0.4016099  0.2720506    0.00000       Uiso       1.00
      H233          H  0.5733338  0.3945222  0.2333990    0.00000       Uiso       1.00
      H234          H  0.5558752  0.3434168  0.2558134    0.00000       Uiso       1.00
      C633          C  0.4929540  0.2792989  0.2944142    0.00000       Uiso       1.00
      C634          C  0.4963274  0.2931974  0.2993252    0.00000       Uiso       1.00
      C635          C  0.4854149  0.2997916  0.3212074    0.00000       Uiso       1.00
      C636          C  0.4898745  0.3128244  0.3258441    0.00000       Uiso       1.00
      C637          C  0.5063690  0.3183932  0.3088945    0.00000       Uiso       1.00
      C638          C  0.5173715  0.3113571  0.2870133    0.00000       Uiso       1.00
      C639          C  0.5114174  0.3003297  0.2816544    0.00000       Uiso       1.00
      O207          O  0.4793029  0.2703808  0.3098215    0.00000       Uiso       1.00
      H235          H  0.4733504  0.2948673  0.3346351    0.00000       Uiso       1.00
      H236          H  0.4804348  0.3182862  0.3427923    0.00000       Uiso       1.00
      H237          H  0.5315725  0.3132901  0.2742504    0.00000       Uiso       1.00
      C640          C  0.5040435  0.2724471  0.2729612    0.00000       Uiso       1.00
      C641          C  0.5181246  0.2801720  0.2549542    0.00000       Uiso       1.00
      C642          C  0.5290294  0.2736054  0.2330634    0.00000       Uiso       1.00
      C643          C  0.5421619  0.2824163  0.2152104    0.00000       Uiso       1.00
      C644          C  0.5435674  0.2990332  0.2187298    0.00000       Uiso       1.00
      C645          C  0.5322503  0.3056135  0.2408728    0.00000       Uiso       1.00
      C646          C  0.5209569  0.2952358  0.2591825    0.00000       Uiso       1.00
      O208          O  0.4989815  0.2582545  0.2715712    0.00000       Uiso       1.00
      H238          H  0.5273746  0.2615435  0.2299242    0.00000       Uiso       1.00
      H239          H  0.5509812  0.2762311  0.1987086    0.00000       Uiso       1.00
      H240          H  0.5310730  0.3198187  0.2438683    0.00000       Uiso       1.00
      C647          C  0.5270689  0.3709462  0.3254503    0.00000       Uiso       1.00
      C648          C  0.5231286  0.3568732  0.3216557    0.00000       Uiso       1.00
      C649          C  0.5121278  0.3459787  0.3392085    0.00000       Uiso       1.00
      C650          C  0.5073934  0.3328543  0.3351219    0.00000       Uiso       1.00
      C651          C  0.5123193  0.3314468  0.3135830    0.00000       Uiso       1.00
      C652          C  0.5231602  0.3427537  0.2961764    0.00000       Uiso       1.00
      C653          C  0.5301898  0.3540388  0.2995357    0.00000       Uiso       1.00
      O209          O  0.5206188  0.3760087  0.3460897    0.00000       Uiso       1.00
      H241          H  0.5073329  0.3476357  0.3560616    0.00000       Uiso       1.00
      H242          H  0.4996992  0.3240429  0.3489904    0.00000       Uiso       1.00
      H243          H  0.5249801  0.3439296  0.2801535    0.00000       Uiso       1.00
      C654          C  0.6025983  0.3478959  0.1514789    0.00000       Uiso       1.00
      C655          C  0.5948633  0.3518381  0.1732818    0.00000       Uiso       1.00
      C656          C  0.6014282  0.3628307  0.1776228    0.00000       Uiso       1.00
      C657          C  0.5926070  0.3675670  0.1995625    0.00000       Uiso       1.00
      C658          C  0.5759816  0.3626514  0.2175777    0.00000       Uiso       1.00
      C659          C  0.5694033  0.3518188  0.2128381    0.00000       Uiso       1.00
      C660          C  0.5797910  0.3447874  0.1911715    0.00000       Uiso       1.00
      O210          O  0.6168002  0.3543362  0.1322302    0.00000       Uiso       1.00
      H244          H  0.6134967  0.3676175  0.1639117    0.00000       Uiso       1.00
      H245          H  0.5987911  0.3752544  0.2021995    0.00000       Uiso       1.00
      H246          H  0.5551918  0.3500066  0.2258598    0.00000       Uiso       1.00
        B7          B  0.6180073  0.3465136  0.1153057    0.00000       Uiso       1.00
        B8          B  0.5284443  0.3917236  0.3394777    0.00000       Uiso       1.00
        B9          B  0.4832554  0.2570552  0.2951050    0.00000       Uiso       1.00
      C661          C  0.0805064  0.6624810  0.8527667    0.00000       Uiso       1.00
      C662          C  0.0755909  0.6707561  0.8355008    0.00000       Uiso       1.00
      C663          C  0.0537008  0.6817329  0.8398223    0.00000       Uiso       1.00
      C664          C  0.0490603  0.6908195  0.8223358    0.00000       Uiso       1.00
      C665          C  0.0660148  0.6903469  0.8002747    0.00000       Uiso       1.00
      C666          C  0.0879043  0.6794608  0.7963049    0.00000       Uiso       1.00
      C667          C  0.0932655  0.6681581  0.8132814    0.00000       Uiso       1.00
      O211          O  0.0650965  0.6642544  0.8753320    0.00000       Uiso       1.00
      H247          H  0.0402699  0.6831093  0.8568090    0.00000       Uiso       1.00
      H248          H  0.0321052  0.6983344  0.8263162    0.00000       Uiso       1.00
      H249          H  0.1006729  0.6808848  0.7801715    0.00000       Uiso       1.00
      C668          C  0.2277029  0.6179794  0.6917691    0.00000       Uiso       1.00
      C669          C  0.2104342  0.6213555  0.7139470    0.00000       Uiso       1.00
      C670          C  0.2147577  0.6104528  0.7315104    0.00000       Uiso       1.00
      C671          C  0.1972691  0.6149146  0.7536338    0.00000       Uiso       1.00
      C672          C  0.1752051  0.6314015  0.7587411    0.00000       Uiso       1.00
      C673          C  0.1712335  0.6423942  0.7408267    0.00000       Uiso       1.00
      C674          C  0.1882101  0.6364377  0.7184937    0.00000       Uiso       1.00
      O212          O  0.2502731  0.6043352  0.6846123    0.00000       Uiso       1.00
      H250          H  0.2317477  0.5983946  0.7279528    0.00000       Uiso       1.00
      H251          H  0.2012507  0.6054826  0.7666046    0.00000       Uiso       1.00
      H252          H  0.1550998  0.6565894  0.7441912    0.00000       Uiso       1.00
      C675          C  0.0666587  0.7207103  0.7055930    0.00000       Uiso       1.00
      C676          C  0.0888422  0.7068112  0.7006816    0.00000       Uiso       1.00
      C677          C  0.1064062  0.7002169  0.6787993    0.00000       Uiso       1.00
      C678          C  0.1285358  0.6871836  0.6741622    0.00000       Uiso       1.00
      C679          C  0.1336499  0.6816143  0.6911114    0.00000       Uiso       1.00
      C680          C  0.1157349  0.6886506  0.7129927    0.00000       Uiso       1.00
      C681          C  0.0933941  0.6996785  0.7183520    0.00000       Uiso       1.00
      O213          O  0.0594967  0.7296288  0.6901860    0.00000       Uiso       1.00
      H253          H  0.1028450  0.7051415  0.6653718    0.00000       Uiso       1.00
      H254          H  0.1415063  0.6817216  0.6572139    0.00000       Uiso       1.00
      H255          H  0.1191063  0.6867172  0.7257553    0.00000       Uiso       1.00
      C682          C  0.0494434  0.7275622  0.7270461    0.00000       Uiso       1.00
      C683          C  0.0532429  0.7198369  0.7450529    0.00000       Uiso       1.00
      C684          C  0.0356900  0.7264037  0.7669438    0.00000       Uiso       1.00
      C685          C  0.0397808  0.7175924  0.7847964    0.00000       Uiso       1.00
      C686          C  0.0613229  0.7009751  0.7812766    0.00000       Uiso       1.00
      C687          C  0.0787293  0.6943946  0.7591336    0.00000       Uiso       1.00
      C688          C  0.0753676  0.7047727  0.7408242    0.00000       Uiso       1.00
      O214          O  0.0287983  0.7417553  0.7284366    0.00000       Uiso       1.00
      H256          H  0.0188338  0.7384660  0.7700832    0.00000       Uiso       1.00
      H257          H  0.0259129  0.7237777  0.8012984    0.00000       Uiso       1.00
      H258          H  0.0947529  0.6801891  0.7561378    0.00000       Uiso       1.00
      C689          C  0.2234607  0.6290591  0.6745538    0.00000       Uiso       1.00
      C690          C  0.2016524  0.6431326  0.6783488    0.00000       Uiso       1.00
      C691          C  0.1973095  0.6540274  0.6607962    0.00000       Uiso       1.00
      C692          C  0.1753635  0.6671523  0.6648833    0.00000       Uiso       1.00
      C693          C  0.1573428  0.6685601  0.6864225    0.00000       Uiso       1.00
      C694          C  0.1620844  0.6572529  0.7038287    0.00000       Uiso       1.00
      C695          C  0.1837589  0.6459672  0.7004690    0.00000       Uiso       1.00
      O215          O  0.2427126  0.6239964  0.6539141    0.00000       Uiso       1.00
      H259          H  0.2110249  0.6523703  0.6439430    0.00000       Uiso       1.00
      H260          H  0.1727264  0.6759639  0.6510150    0.00000       Uiso       1.00
      H261          H  0.1490570  0.6560772  0.7198519    0.00000       Uiso       1.00
      C696          C  0.1019675  0.6521103  0.8485259    0.00000       Uiso       1.00
      C697          C  0.1199778  0.6481678  0.8267229    0.00000       Uiso       1.00
      C698          C  0.1418767  0.6371747  0.8223813    0.00000       Uiso       1.00
      C699          C  0.1597318  0.6324382  0.8004415    0.00000       Uiso       1.00
      C700          C  0.1562055  0.6373542  0.7824267    0.00000       Uiso       1.00
      C701          C  0.1340544  0.6481875  0.7871668    0.00000       Uiso       1.00
      C702          C  0.1157441  0.6552190  0.8088334    0.00000       Uiso       1.00
      O216          O  0.1033612  0.6456697  0.8677743    0.00000       Uiso       1.00
      H262          H  0.1450212  0.6323876  0.8360922    0.00000       Uiso       1.00
      H263          H  0.1762406  0.6247504  0.7978041    0.00000       Uiso       1.00
      H264          H  0.1310522  0.6500000  0.7741453    0.00000       Uiso       1.00
       B10          B  0.0798207  0.6534927  0.8846992    0.00000       Uiso       1.00
       B11          B  0.2596416  0.6082809  0.6605257    0.00000       Uiso       1.00
       B12          B  0.0354066  0.7429549  0.7049030    0.00000       Uiso       1.00
      C703          C  0.9952506  0.8347740  0.3530083    0.00000       Uiso       1.00
      C704          C  0.0001381  0.8249621  0.3357347    0.00000       Uiso       1.00
      C705          C  0.9934823  0.8097227  0.3400064    0.00000       Uiso       1.00
      C706          C  0.9976887  0.8009375  0.3225138    0.00000       Uiso       1.00
      C707          C  0.0073494  0.8082550  0.3004490    0.00000       Uiso       1.00
      C708          C  0.0136881  0.8238133  0.2964809    0.00000       Uiso       1.00
      C709          C  0.0118752  0.8309531  0.3134834    0.00000       Uiso       1.00
      O217          O  0.9831095  0.8315527  0.3756245    0.00000       Uiso       1.00
      H265          H  0.0188283  0.8314446  0.2803392    0.00000       Uiso       1.00
      C710          C  0.0978513  0.8794527  0.1918722    0.00000       Uiso       1.00
      C711          C  0.0854671  0.8745779  0.2140504    0.00000       Uiso       1.00
      C712          C  0.0831182  0.8812963  0.2315958    0.00000       Uiso       1.00
      C713          C  0.0699376  0.8769961  0.2537157    0.00000       Uiso       1.00
      C714          C  0.0576174  0.8671857  0.2588665    0.00000       Uiso       1.00
      C715          C  0.0599064  0.8608877  0.2409663    0.00000       Uiso       1.00
      C716          C  0.0749881  0.8628001  0.2186099    0.00000       Uiso       1.00
      O218          O  0.1083610  0.8915356  0.1847309    0.00000       Uiso       1.00
      H266          H  0.0917169  0.8897140  0.2280264    0.00000       Uiso       1.00
      H267          H  0.0693925  0.8815861  0.2666459    0.00000       Uiso       1.00
      H268          H  0.0489519  0.8556428  0.2443779    0.00000       Uiso       1.00
      C717          C  0.0392356  0.7768983  0.2058036    0.00000       Uiso       1.00
      C718          C  0.0490386  0.7892731  0.2008808    0.00000       Uiso       1.00
      C719          C  0.0642300  0.7916231  0.1789652    0.00000       Uiso       1.00
      C720          C  0.0731852  0.8047985  0.1743081    0.00000       Uiso       1.00
      C721          C  0.0660375  0.8171077  0.1912784    0.00000       Uiso       1.00
      C722          C  0.0504400  0.8148015  0.2131895    0.00000       Uiso       1.00
      C723          C  0.0431561  0.7997224  0.2185549    0.00000       Uiso       1.00
      O219          O  0.0426933  0.7663642  0.1903007    0.00000       Uiso       1.00
      H269          H  0.0692290  0.7830222  0.1655439    0.00000       Uiso       1.00
      H270          H  0.0855590  0.8053396  0.1573317    0.00000       Uiso       1.00
      H271          H  0.0428921  0.8257285  0.2259968    0.00000       Uiso       1.00
      C724          C  0.0242233  0.7746291  0.2273290    0.00000       Uiso       1.00
      C725          C  0.0187803  0.7838948  0.2453390    0.00000       Uiso       1.00
      C726          C  0.0035533  0.7816134  0.2672849    0.00000       Uiso       1.00
      C727          C  0.9991509  0.7901833  0.2850512    0.00000       Uiso       1.00
      C728          C  0.0109273  0.7999663  0.2814729    0.00000       Uiso       1.00
      C729          C  0.0264142  0.8018557  0.2593096    0.00000       Uiso       1.00
      C730          C  0.0292483  0.7956048  0.2410414    0.00000       Uiso       1.00
      O220          O  0.0162906  0.7619278  0.2286502    0.00000       Uiso       1.00
      H272          H  0.0372932  0.8069948  0.2562911    0.00000       Uiso       1.00
      C731          C  0.1001162  0.8729101  0.1746231    0.00000       Uiso       1.00
      C732          C  0.0908430  0.8603676  0.1784364    0.00000       Uiso       1.00
      C733          C  0.0931888  0.8536776  0.1608762    0.00000       Uiso       1.00
      C734          C  0.0844955  0.8404223  0.1649872    0.00000       Uiso       1.00
      C735          C  0.0745466  0.8323230  0.1865618    0.00000       Uiso       1.00
      C736          C  0.0727001  0.8389252  0.2039612    0.00000       Uiso       1.00
      C737          C  0.0790733  0.8542457  0.2005829    0.00000       Uiso       1.00
      O221          O  0.1127573  0.8795085  0.1539456    0.00000       Uiso       1.00
      H273          H  0.1016157  0.8589630  0.1440065    0.00000       Uiso       1.00
      H274          H  0.0858142  0.8364922  0.1511071    0.00000       Uiso       1.00
      H275          H  0.0674464  0.8311273  0.2200042    0.00000       Uiso       1.00
      C738          C  0.0017890  0.8497855  0.3487013    0.00000       Uiso       1.00
      C739          C  0.0143378  0.8552323  0.3268993    0.00000       Uiso       1.00
      C740          C  0.0210244  0.8704483  0.3225689    0.00000       Uiso       1.00
      C741          C  0.0342914  0.8750262  0.3006318    0.00000       Uiso       1.00
      C742          C  0.0423963  0.8633972  0.2825815    0.00000       Uiso       1.00
      C743          C  0.0357815  0.8478541  0.2873299    0.00000       Uiso       1.00
      C744          C  0.0204535  0.8448674  0.3090180    0.00000       Uiso       1.00
      O222          O  0.9951472  0.8579422  0.3679004    0.00000       Uiso       1.00
      H276          H  0.0157186  0.8788844  0.3362979    0.00000       Uiso       1.00
      H277          H  0.0382160  0.8875839  0.2980431    0.00000       Uiso       1.00
      H278          H  0.0435599  0.8370501  0.2743003    0.00000       Uiso       1.00
       B13          B  0.9832110  0.8462711  0.3848616    0.00000       Uiso       1.00
       B14          B  0.1178275  0.8913937  0.1606016    0.00000       Uiso       1.00
       B15          B  0.0280640  0.7568561  0.2050932    0.00000       Uiso       1.00
      H279          H  0.9851655  0.8044490  0.3568799    0.00000       Uiso       1.00
      H280          H  0.9930585  0.7885845  0.3265493    0.00000       Uiso       1.00
      H281          H  0.9948921  0.7733528  0.2707132    0.00000       Uiso       1.00
      H282          H  0.9866281  0.7888210  0.3015551    0.00000       Uiso       1.00
      C745          C  0.5218121  0.8085768  0.8821972    0.00000       Uiso       1.00
      C746          C  0.5390725  0.7863957  0.8788410    0.00000       Uiso       1.00
      C747          C  0.5347365  0.7688419  0.8897594    0.00000       Uiso       1.00
      C748          C  0.5522173  0.7467147  0.8853170    0.00000       Uiso       1.00
      C749          C  0.5742863  0.7415926  0.8688345    0.00000       Uiso       1.00
      C750          C  0.5782706  0.7594975  0.8578261    0.00000       Uiso       1.00
      C751          C  0.5613011  0.7818357  0.8637629    0.00000       Uiso       1.00
      O223          O  0.4992388  0.8157457  0.8958349    0.00000       Uiso       1.00
      H283          H  0.5177431  0.7724096  0.9018146    0.00000       Uiso       1.00
      H284          H  0.5482261  0.7337520  0.8947607    0.00000       Uiso       1.00
      H285          H  0.5944090  0.7561203  0.8436339    0.00000       Uiso       1.00
      C752          C  0.6828960  0.7946602  0.7794794    0.00000       Uiso       1.00
      C753          C  0.6607087  0.7995839  0.7933741    0.00000       Uiso       1.00
      C754          C  0.6431518  0.8214721  0.7999486    0.00000       Uiso       1.00
      C755          C  0.6210184  0.8261211  0.8129778    0.00000       Uiso       1.00
      C756          C  0.6158941  0.8091769  0.8185624    0.00000       Uiso       1.00
      C757          C  0.6338022  0.7872891  0.8115459    0.00000       Uiso       1.00
      C758          C  0.6561456  0.7819198  0.8005226    0.00000       Uiso       1.00
      O224          O  0.6900687  0.8100593  0.7705472    0.00000       Uiso       1.00
      H286          H  0.6467221  0.8348946  0.7950113    0.00000       Uiso       1.00
      H287          H  0.6080533  0.8430744  0.8184242    0.00000       Uiso       1.00
      H288          H  0.6304243  0.7745283  0.8134909    0.00000       Uiso       1.00
      C759          C  0.6689564  0.6475388  0.8378391    0.00000       Uiso       1.00
      C760          C  0.6738837  0.6647970  0.8295484    0.00000       Uiso       1.00
      C761          C  0.6957769  0.6604654  0.8185754    0.00000       Uiso       1.00
      C762          C  0.7004294  0.6779438  0.8094732    0.00000       Uiso       1.00
      C763          C  0.6834847  0.7000054  0.8099261    0.00000       Uiso       1.00
      C764          C  0.6615920  0.7039852  0.8208084    0.00000       Uiso       1.00
      C765          C  0.6562181  0.6870189  0.8321263    0.00000       Uiso       1.00
      O225          O  0.6843566  0.6249717  0.8360865    0.00000       Uiso       1.00
      H289          H  0.7092009  0.6434774  0.8172141    0.00000       Uiso       1.00
      H290          H  0.7173861  0.6739565  0.8019618    0.00000       Uiso       1.00
      H291          H  0.6488315  0.7201173  0.8193697    0.00000       Uiso       1.00
      C766          C  0.6474925  0.6517892  0.8482061    0.00000       Uiso       1.00
      C767          C  0.6294904  0.6735959  0.8521287    0.00000       Uiso       1.00
      C768          C  0.6075886  0.6779473  0.8631181    0.00000       Uiso       1.00
      C769          C  0.5897413  0.6998914  0.8678350    0.00000       Uiso       1.00
      C770          C  0.5932779  0.7179018  0.8629027    0.00000       Uiso       1.00
      C771          C  0.6154318  0.7131519  0.8520734    0.00000       Uiso       1.00
      C772          C  0.6337355  0.6914788  0.8450614    0.00000       Uiso       1.00
      O226          O  0.6460866  0.6325470  0.8546644    0.00000       Uiso       1.00
      H292          H  0.6044365  0.6642403  0.8679176    0.00000       Uiso       1.00
      H293          H  0.5732304  0.7025355  0.8755206    0.00000       Uiso       1.00
      H294          H  0.6184409  0.7261717  0.8502488    0.00000       Uiso       1.00
      C773          C  0.7001049  0.7732011  0.7726467    0.00000       Uiso       1.00
      C774          C  0.6962941  0.7552012  0.7803879    0.00000       Uiso       1.00
      C775          C  0.7138402  0.7333044  0.7738405    0.00000       Uiso       1.00
      C776          C  0.7097377  0.7154595  0.7826675    0.00000       Uiso       1.00
      C777          C  0.6881897  0.7189940  0.7992814    0.00000       Uiso       1.00
      C778          C  0.6707903  0.7411429  0.8058423    0.00000       Uiso       1.00
      C779          C  0.6741645  0.7594432  0.7954484    0.00000       Uiso       1.00
      O227          O  0.7207555  0.7717980  0.7584548    0.00000       Uiso       1.00
      H295          H  0.7307004  0.7301546  0.7617812    0.00000       Uiso       1.00
      H296          H  0.7236012  0.6989521  0.7764968    0.00000       Uiso       1.00
      H297          H  0.6547618  0.7441512  0.8200452    0.00000       Uiso       1.00
      C780          C  0.5260668  0.8257824  0.8711021    0.00000       Uiso       1.00
      C781          C  0.5478798  0.8219748  0.8570320    0.00000       Uiso       1.00
      C782          C  0.5522358  0.8395174  0.8461212    0.00000       Uiso       1.00
      C783          C  0.5741858  0.8354182  0.8330002    0.00000       Uiso       1.00
      C784          C  0.5921973  0.8138778  0.8316122    0.00000       Uiso       1.00
      C785          C  0.5874427  0.7964819  0.8429352    0.00000       Uiso       1.00
      C786          C  0.5657645  0.7998520  0.8542175    0.00000       Uiso       1.00
      O228          O  0.5068216  0.8464265  0.8761464    0.00000       Uiso       1.00
      H298          H  0.5385281  0.8563723  0.8477620    0.00000       Uiso       1.00
      H299          H  0.5768337  0.8492783  0.8241757    0.00000       Uiso       1.00
      H300          H  0.6004623  0.7804598  0.8441254    0.00000       Uiso       1.00
       B16          B  0.4898826  0.8398290  0.8918677    0.00000       Uiso       1.00
       B17          B  0.7141581  0.7953305  0.7572343    0.00000       Uiso       1.00
       B18          B  0.6696231  0.6156147  0.8468568    0.00000       Uiso       1.00
      C787          C  0.0223441  0.2231023  0.7947797    0.00000       Uiso       1.00
      C788          C  0.0396245  0.2107157  0.7996995    0.00000       Uiso       1.00
      C789          C  0.0353567  0.2083446  0.8215880    0.00000       Uiso       1.00
      C790          C  0.0528553  0.1950582  0.8261626    0.00000       Uiso       1.00
      C791          C  0.0749214  0.1826416  0.8091872    0.00000       Uiso       1.00
      C792          C  0.0788854  0.1849995  0.7872971    0.00000       Uiso       1.00
      C793          C  0.0618786  0.2001878  0.7819737    0.00000       Uiso       1.00
      O229          O  0.9997236  0.2335903  0.8101410    0.00000       Uiso       1.00
      H301          H  0.0950262  0.1739897  0.7745287    0.00000       Uiso       1.00
      C794          C  0.1835074  0.1644515  0.6475175    0.00000       Uiso       1.00
      C795          C  0.1613256  0.1742591  0.6647747    0.00000       Uiso       1.00
      C796          C  0.1437759  0.1894552  0.6604085    0.00000       Uiso       1.00
      C797          C  0.1216518  0.1984086  0.6778878    0.00000       Uiso       1.00
      C798          C  0.1165000  0.1912548  0.7000141    0.00000       Uiso       1.00
      C799          C  0.1344043  0.1756440  0.7040200    0.00000       Uiso       1.00
      C800          C  0.1567668  0.1683545  0.6870263    0.00000       Uiso       1.00
      O230          O  0.1906479  0.1678049  0.6249301    0.00000       Uiso       1.00
      H302          H  0.1473452  0.1944729  0.6433958    0.00000       Uiso       1.00
      H303          H  0.1087191  0.2107924  0.6738452    0.00000       Uiso       1.00
      H304          H  0.1309903  0.1681134  0.7202172    0.00000       Uiso       1.00
      C801          C  0.1695963  0.1198660  0.8086420    0.00000       Uiso       1.00
      C802          C  0.1745178  0.1247318  0.7864697    0.00000       Uiso       1.00
      C803          C  0.1964394  0.1179924  0.7689290    0.00000       Uiso       1.00
      C804          C  0.2010945  0.1222765  0.7468041    0.00000       Uiso       1.00
      C805          C  0.1841153  0.1321003  0.7416486    0.00000       Uiso       1.00
      C806          C  0.1621981  0.1384294  0.7595515    0.00000       Uiso       1.00
      C807          C  0.1568362  0.1365243  0.7819078    0.00000       Uiso       1.00
      O231          O  0.1851056  0.1078221  0.8157135    0.00000       Uiso       1.00
      H305          H  0.2098670  0.1095691  0.7725269    0.00000       Uiso       1.00
      H306          H  0.2180763  0.1176621  0.7338892    0.00000       Uiso       1.00
      H307          H  0.1493824  0.1436909  0.7561776    0.00000       Uiso       1.00
      C808          C  0.1480650  0.1263940  0.8259230    0.00000       Uiso       1.00
      C809          C  0.1300482  0.1389621  0.8221048    0.00000       Uiso       1.00
      C810          C  0.1080964  0.1456961  0.8396124    0.00000       Uiso       1.00
      C811          C  0.0903240  0.1590606  0.8354490    0.00000       Uiso       1.00
      C812          C  0.0939031  0.1672436  0.8138940    0.00000       Uiso       1.00
      C813          C  0.1160726  0.1605520  0.7965181    0.00000       Uiso       1.00
      C814          C  0.1343452  0.1451179  0.7999318    0.00000       Uiso       1.00
      O232          O  0.1467461  0.1197953  0.8465512    0.00000       Uiso       1.00
      H308          H  0.1190936  0.1684004  0.7805022    0.00000       Uiso       1.00
      C815          C  0.2007607  0.1494678  0.6517919    0.00000       Uiso       1.00
      C816          C  0.1969489  0.1440219  0.6736022    0.00000       Uiso       1.00
      C817          C  0.2145135  0.1288080  0.6779431    0.00000       Uiso       1.00
      C818          C  0.2104046  0.1242395  0.6998858    0.00000       Uiso       1.00
      C819          C  0.1888289  0.1358783  0.7179309    0.00000       Uiso       1.00
      C820          C  0.1714254  0.1514302  0.7131783    0.00000       Uiso       1.00
      C821          C  0.1747997  0.1544124  0.6914914    0.00000       Uiso       1.00
      O233          O  0.2214411  0.1414166  0.6325552    0.00000       Uiso       1.00
      H309          H  0.2313848  0.1203549  0.6642329    0.00000       Uiso       1.00
      H310          H  0.2242872  0.1116784  0.7024953    0.00000       Uiso       1.00
      H311          H  0.1553833  0.1622280  0.7262267    0.00000       Uiso       1.00
      C822          C  0.0266473  0.2253210  0.7732365    0.00000       Uiso       1.00
      C823          C  0.0484526  0.2160537  0.7552430    0.00000       Uiso       1.00
      C824          C  0.0527792  0.2183969  0.7333471    0.00000       Uiso       1.00
      C825          C  0.0747204  0.2097123  0.7155039    0.00000       Uiso       1.00
      C826          C  0.0927797  0.1997645  0.7190225    0.00000       Uiso       1.00
      C827          C  0.0880353  0.1979111  0.7411735    0.00000       Uiso       1.00
      C828          C  0.0663415  0.2042868  0.7594872    0.00000       Uiso       1.00
      O234          O  0.0074413  0.2378811  0.7717255    0.00000       Uiso       1.00
      H312          H  0.0390439  0.2268213  0.7302209    0.00000       Uiso       1.00
      H313          H  0.0773052  0.2110390  0.6990271    0.00000       Uiso       1.00
      H314          H  0.1010733  0.1926576  0.7441940    0.00000       Uiso       1.00
       B19          B  0.9904797  0.2429223  0.7953279    0.00000       Uiso       1.00
       B20          B  0.2147819  0.1531331  0.6156052    0.00000       Uiso       1.00
       B21          B  0.1703109  0.1080030  0.8398469    0.00000       Uiso       1.00
      H315          H  0.0184815  0.2169116  0.8351764    0.00000       Uiso       1.00
      H316          H  0.0488233  0.1944735  0.8431401    0.00000       Uiso       1.00
      H317          H  0.1046680  0.1404749  0.8565305    0.00000       Uiso       1.00
      H318          H  0.0738150  0.1630539  0.8493338    0.00000       Uiso       1.00
      C829          C  0.2125814  0.1914289  0.1178071    0.00000       Uiso       1.00
      C830          C  0.2043047  0.2136097  0.1211631    0.00000       Uiso       1.00
      C831          C  0.1933330  0.2311638  0.1102451    0.00000       Uiso       1.00
      C832          C  0.1842444  0.2532910  0.1146872    0.00000       Uiso       1.00
      C833          C  0.1847093  0.2584125  0.1311694    0.00000       Uiso       1.00
      C834          C  0.1955901  0.2405073  0.1421776    0.00000       Uiso       1.00
      C835          C  0.2068956  0.2181692  0.1362408    0.00000       Uiso       1.00
      O235          O  0.2108144  0.1842604  0.1041698    0.00000       Uiso       1.00
      H319          H  0.1919622  0.2275966  0.0981901    0.00000       Uiso       1.00
      H320          H  0.1767340  0.2662537  0.1052438    0.00000       Uiso       1.00
      H321          H  0.1941595  0.2438842  0.1563695    0.00000       Uiso       1.00
      C836          C  0.2570347  0.2053413  0.2205214    0.00000       Uiso       1.00
      C837          C  0.2536652  0.2004181  0.2066272    0.00000       Uiso       1.00
      C838          C  0.2645709  0.1785300  0.2000528    0.00000       Uiso       1.00
      C839          C  0.2601152  0.1738815  0.1870241    0.00000       Uiso       1.00
      C840          C  0.2436309  0.1908261  0.1814398    0.00000       Uiso       1.00
      C841          C  0.2326350  0.2127138  0.1884562    0.00000       Uiso       1.00
      C842          C  0.2385863  0.2180825  0.1994790    0.00000       Uiso       1.00
      O236          O  0.2706747  0.1899417  0.2294533    0.00000       Uiso       1.00
      H322          H  0.2766268  0.1651072  0.2049898    0.00000       Uiso       1.00
      H323          H  0.2695498  0.1569283  0.1815777    0.00000       Uiso       1.00
      H324          H  0.2184408  0.2254750  0.1865116    0.00000       Uiso       1.00
      C843          C  0.1543313  0.3524650  0.1621637    0.00000       Uiso       1.00
      C844          C  0.1682265  0.3352064  0.1704541    0.00000       Uiso       1.00
      C845          C  0.1748156  0.3395374  0.1814266    0.00000       Uiso       1.00
      C846          C  0.1878447  0.3220587  0.1905285    0.00000       Uiso       1.00
      C847          C  0.1934141  0.2999973  0.1900758    0.00000       Uiso       1.00
      C848          C  0.1863830  0.2960182  0.1791940    0.00000       Uiso       1.00
      C849          C  0.1753604  0.3129847  0.1678764    0.00000       Uiso       1.00
      O237          O  0.1454120  0.3750319  0.1639162    0.00000       Uiso       1.00
      H325          H  0.1698904  0.3565252  0.1827878    0.00000       Uiso       1.00
      H326          H  0.1933031  0.3260455  0.1980395    0.00000       Uiso       1.00
      H327          H  0.1883157  0.2798863  0.1806329    0.00000       Uiso       1.00
      C850          C  0.1474843  0.3482151  0.1517972    0.00000       Uiso       1.00
      C851          C  0.1552114  0.3264087  0.1478747    0.00000       Uiso       1.00
      C852          C  0.1486498  0.3220579  0.1368858    0.00000       Uiso       1.00
      C853          C  0.1574634  0.3001139  0.1321691    0.00000       Uiso       1.00
      C854          C  0.1740783  0.2821031  0.1371011    0.00000       Uiso       1.00
      C855          C  0.1806536  0.2868524  0.1479299    0.00000       Uiso       1.00
      C856          C  0.1702723  0.3085254  0.1549418    0.00000       Uiso       1.00
      O238          O  0.1332943  0.3674577  0.1453391    0.00000       Uiso       1.00
      H328          H  0.1365898  0.3357652  0.1320866    0.00000       Uiso       1.00
      H329          H  0.1512817  0.2974703  0.1244838    0.00000       Uiso       1.00
      H330          H  0.1948583  0.2738323  0.1497541    0.00000       Uiso       1.00
      C857          C  0.2459518  0.2268002  0.2273541    0.00000       Uiso       1.00
      C858          C  0.2318820  0.2448005  0.2196132    0.00000       Uiso       1.00
      C859          C  0.2209841  0.2666971  0.2261604    0.00000       Uiso       1.00
      C860          C  0.2078633  0.2845424  0.2173338    0.00000       Uiso       1.00
      C861          C  0.2064634  0.2810084  0.2007202    0.00000       Uiso       1.00
      C862          C  0.2177736  0.2588596  0.1941594    0.00000       Uiso       1.00
      C863          C  0.2290544  0.2405590  0.2045531    0.00000       Uiso       1.00
      O239          O  0.2510079  0.2282028  0.2415456    0.00000       Uiso       1.00
      H331          H  0.2226356  0.2698465  0.2382195    0.00000       Uiso       1.00
      H332          H  0.1990488  0.3010497  0.2235043    0.00000       Uiso       1.00
      H333          H  0.2189560  0.2558516  0.1799568    0.00000       Uiso       1.00
      C864          C  0.2229469  0.1742229  0.1289020    0.00000       Uiso       1.00
      C865          C  0.2268827  0.1780300  0.1429716    0.00000       Uiso       1.00
      C866          C  0.2378707  0.1604871  0.1538821    0.00000       Uiso       1.00
      C867          C  0.2426010  0.1645857  0.1670027    0.00000       Uiso       1.00
      C868          C  0.2376844  0.1861259  0.1683904    0.00000       Uiso       1.00
      C869          C  0.2268565  0.2035221  0.1570678    0.00000       Uiso       1.00
      C870          C  0.2198302  0.2001526  0.1457860    0.00000       Uiso       1.00
      O240          O  0.2293898  0.1535790  0.1238579    0.00000       Uiso       1.00
      H334          H  0.2426586  0.1436323  0.1522415    0.00000       Uiso       1.00
      H335          H  0.2502848  0.1507255  0.1758270    0.00000       Uiso       1.00
      H336          H  0.2250445  0.2195439  0.1558774    0.00000       Uiso       1.00
       B22          B  0.2215742  0.1601771  0.1081370    0.00000       Uiso       1.00
       B23          B  0.2667227  0.2046700  0.2427659    0.00000       Uiso       1.00
       B24          B  0.1320910  0.3843896  0.1531464    0.00000       Uiso       1.00
