data_33
_audit_creation_date              0000-00-00
_audit_creation_method            'LanYouShi'
_symmetry_space_group_name_H-M    'P1'
_cell_length_a                    68.7341995
_cell_length_b                    59.5264015
_cell_length_c                    59.5264015
_cell_angle_alpha                 70.5292969
_cell_angle_beta                  54.7360992
_cell_angle_gamma                 54.7360992
loop_
_atom_site_label
_atom_site_type_symbol
_atom_site_fract_x
_atom_site_fract_y
_atom_site_fract_z
_atom_site_U_iso_or_equiv
_atom_site_adp_type
_atom_site_occupancy
        C1          C  0.4999897  0.5000082  0.4999830    0.00000       Uiso       1.00
        C2          C  0.3707346  0.6087075  0.5481929    0.00000       Uiso       1.00
        C3          C  0.3805695  0.5801899  0.5538932    0.00000       Uiso       1.00
        C4          C  0.3614881  0.5708055  0.5722888    0.00000       Uiso       1.00
        C5          C  0.3329114  0.5897365  0.5851210    0.00000       Uiso       1.00
        C6          C  0.3230765  0.6183064  0.5796688    0.00000       Uiso       1.00
        C7          C  0.3421514  0.6276842  0.5611231    0.00000       Uiso       1.00
        H1          H  0.3350332  0.6496390  0.5564740    0.00000       Uiso       1.00
        C8          C  0.5654824  0.5539300  0.4198057    0.00000       Uiso       1.00
        C9          C  0.5810177  0.5482296  0.3912880    0.00000       Uiso       1.00
       C10          C  0.5661683  0.5723255  0.4291900    0.00000       Uiso       1.00
       C11          C  0.5819126  0.5851578  0.4102591    0.00000       Uiso       1.00
       C12          C  0.5971997  0.5797056  0.3816892    0.00000       Uiso       1.00
       C13          C  0.5966706  0.5611599  0.3723114    0.00000       Uiso       1.00
        H2          H  0.6084380  0.5565107  0.3503566    0.00000       Uiso       1.00
       C14          C  0.5146573  0.4198425  0.4460655    0.00000       Uiso       1.00
       C15          C  0.5276398  0.3913248  0.4517658    0.00000       Uiso       1.00
       C16          C  0.5045871  0.4292268  0.4276700    0.00000       Uiso       1.00
       C17          C  0.5077737  0.4102959  0.4148377    0.00000       Uiso       1.00
       C18          C  0.5210566  0.3817260  0.4202899    0.00000       Uiso       1.00
       C19          C  0.5309635  0.3723482  0.4388356    0.00000       Uiso       1.00
        H3          H  0.5411510  0.3503934  0.4434847    0.00000       Uiso       1.00
       C20          C  0.5098865  0.4859824  0.5220960    0.00000       Uiso       1.00
       C21          C  0.5392225  0.4461024  0.5801530    0.00000       Uiso       1.00
       C22          C  0.4918587  0.4916314  0.5508924    0.00000       Uiso       1.00
       C23          C  0.5205397  0.4518028  0.6086707    0.00000       Uiso       1.00
       C24          C  0.5383312  0.4673838  0.5134774    0.00000       Uiso       1.00
       C25          C  0.5676883  0.4277069  0.5707687    0.00000       Uiso       1.00
       C26          C  0.5481160  0.4541230  0.5324504    0.00000       Uiso       1.00
       C27          C  0.5773340  0.4148746  0.5896996    0.00000       Uiso       1.00
       C28          C  0.5295404  0.4594164  0.5608877    0.00000       Uiso       1.00
       C29          C  0.5585989  0.4203268  0.6182695    0.00000       Uiso       1.00
       C30          C  0.5013556  0.4783236  0.5700794    0.00000       Uiso       1.00
       C31          C  0.5301461  0.4388725  0.6276473    0.00000       Uiso       1.00
        H4          H  0.5153096  0.4435216  0.6496021    0.00000       Uiso       1.00
       C32          C  0.4572147  0.5509061  0.5083305    0.00000       Uiso       1.00
       C33          C  0.4679838  0.5221304  0.5140083    0.00000       Uiso       1.00
       C34          C  0.4481612  0.5135283  0.5325360    0.00000       Uiso       1.00
       C35          C  0.4193914  0.5324859  0.5457849    0.00000       Uiso       1.00
       C36          C  0.4095250  0.5609206  0.5405182    0.00000       Uiso       1.00
       C37          C  0.4285217  0.5701073  0.5216111    0.00000       Uiso       1.00
        H5          H  0.4553981  0.4917916  0.5369559    0.00000       Uiso       1.00
       C38          C  0.5179828  0.5140170  0.4778687    0.00000       Uiso       1.00
       C39          C  0.5343289  0.5084379  0.4490802    0.00000       Uiso       1.00
       C40          C  0.5192341  0.5325845  0.4864706    0.00000       Uiso       1.00
       C41          C  0.5346838  0.5459014  0.4675049    0.00000       Uiso       1.00
       C42          C  0.5498112  0.5406410  0.4390680    0.00000       Uiso       1.00
       C43          C  0.5496994  0.5217566  0.4298770    0.00000       Uiso       1.00
        H6          H  0.5077395  0.5368423  0.5082316    0.00000       Uiso       1.00
       C44          C  0.5041114  0.4778973  0.4859691    0.00000       Uiso       1.00
       C45          C  0.5165123  0.4491169  0.4915725    0.00000       Uiso       1.00
       C46          C  0.4942101  0.4865128  0.4674378    0.00000       Uiso       1.00
       C47          C  0.4976956  0.4675533  0.4541422    0.00000       Uiso       1.00
       C48          C  0.5110087  0.4391150  0.4593975    0.00000       Uiso       1.00
       C49          C  0.5203049  0.4299230  0.4782849    0.00000       Uiso       1.00
        H7          H  0.4839922  0.5082631  0.4631343    0.00000       Uiso       1.00
        H8          H  0.5529321  0.4629222  0.4917338    0.00000       Uiso       1.00
       C50          C  0.4830615  0.4837278  0.5984662    0.00000       Uiso       1.00
       C51          C  0.4924822  0.4706274  0.6174564    0.00000       Uiso       1.00
       C52          C  0.3900114  0.6174878  0.5293471    0.00000       Uiso       1.00
       C53          C  0.4184266  0.5984949  0.5162225    0.00000       Uiso       1.00
       C54          C  0.3717378  0.5423529  0.5773069    0.00000       Uiso       1.00
       C55          C  0.4002172  0.5235153  0.5643025    0.00000       Uiso       1.00
       C56          C  0.5368820  0.3825428  0.4705834    0.00000       Uiso       1.00
       C57          C  0.5332111  0.4015355  0.4836757    0.00000       Uiso       1.00
       C58          C  0.5805411  0.5294270  0.3825032    0.00000       Uiso       1.00
       C59          C  0.5651990  0.5163518  0.4014913    0.00000       Uiso       1.00
       C60          C  0.5508782  0.5773650  0.4576408    0.00000       Uiso       1.00
       C61          C  0.5353754  0.5643870  0.4764771    0.00000       Uiso       1.00
        H9          H  0.5468923  0.3608766  0.4753367    0.00000       Uiso       1.00
       H10          H  0.5405446  0.3939337  0.4981026    0.00000       Uiso       1.00
       H11          H  0.5654693  0.5019243  0.3938878    0.00000       Uiso       1.00
       H12          H  0.5922015  0.5246708  0.3608371    0.00000       Uiso       1.00
       H13          H  0.5239314  0.5687913  0.4982060    0.00000       Uiso       1.00
       H14          H  0.5509346  0.5913758  0.4654242    0.00000       Uiso       1.00
       H15          H  0.3831062  0.6391542  0.5245922    0.00000       Uiso       1.00
       H16          H  0.4325818  0.6060978  0.5017815    0.00000       Uiso       1.00
       H17          H  0.4072586  0.5017874  0.5687176    0.00000       Uiso       1.00
       H18          H  0.3576714  0.5345699  0.5913267    0.00000       Uiso       1.00
       C62          C  0.4880466  0.4765221  0.4356445    0.00000       Uiso       1.00
       C63          C  0.4914054  0.4576805  0.4226472    0.00000       Uiso       1.00
       H19          H  0.4777597  0.4982508  0.4312406    0.00000       Uiso       1.00
       H20          H  0.4835686  0.4654622  0.4086339    0.00000       Uiso       1.00
       C64          C  0.5762599  0.4356134  0.5234863    0.00000       Uiso       1.00
       C65          C  0.5858957  0.4226501  0.5423242    0.00000       Uiso       1.00
       H21          H  0.4613028  0.4981681  0.6060708    0.00000       Uiso       1.00
       H22          H  0.4777215  0.4753850  0.6391225    0.00000       Uiso       1.00
       H23          H  0.5909526  0.4311803  0.5017617    0.00000       Uiso       1.00
       H24          H  0.6077439  0.4086283  0.5345489    0.00000       Uiso       1.00
        N1          N  0.5821378  0.6047025  0.4209138    0.00000       Uiso       1.00
       H25          H  0.5942386  0.6121174  0.4049824    0.00000       Uiso       1.00
       H26          H  0.5895277  0.5946064  0.4340173    0.00000       Uiso       1.00
        N2          N  0.5362083  0.4874460  0.4379809    0.00000       Uiso       1.00
       H27          H  0.5485741  0.4861864  0.4173359    0.00000       Uiso       1.00
       H28          H  0.5172397  0.4932053  0.4427331    0.00000       Uiso       1.00
        N3          N  0.4968937  0.4209506  0.3952929    0.00000       Uiso       1.00
       H29          H  0.5007243  0.4050192  0.3878781    0.00000       Uiso       1.00
       H30          H  0.5062742  0.4309277  0.3795500    0.00000       Uiso       1.00
        N4          N  0.5258999  0.4379959  0.5124307    0.00000       Uiso       1.00
       H31          H  0.5341250  0.4173576  0.5137330    0.00000       Uiso       1.00
       H32          H  0.5096453  0.4465292  0.5309862    0.00000       Uiso       1.00
        N5          N  0.6077587  0.3953298  0.5790449    0.00000       Uiso       1.00
       H33          H  0.6113430  0.3879150  0.5949762    0.00000       Uiso       1.00
       H34          H  0.6181559  0.4054260  0.5659414    0.00000       Uiso       1.00
        N6          N  0.4616176  0.5125583  0.5621209    0.00000       Uiso       1.00
       H35          H  0.4521688  0.5138076  0.5827553    0.00000       Uiso       1.00
       H36          H  0.4531263  0.5067485  0.5574733    0.00000       Uiso       1.00
        N7          N  0.4763333  0.5620210  0.4874229    0.00000       Uiso       1.00
       H37          H  0.4960006  0.5463777  0.4795718    0.00000       Uiso       1.00
       H38          H  0.4738631  0.5756970  0.4966038    0.00000       Uiso       1.00
        N8          N  0.3131414  0.5790818  0.6046658    0.00000       Uiso       1.00
       H39          H  0.2936256  0.5950131  0.6120806    0.00000       Uiso       1.00
       H40          H  0.3167559  0.5691047  0.6204088    0.00000       Uiso       1.00
       C66          C  0.8749830  0.6250108  0.8749781    0.00000       Uiso       1.00
       C67          C  0.7662801  0.7060569  0.8544265    0.00000       Uiso       1.00
       C68          C  0.7947980  0.6905218  0.8357432    0.00000       Uiso       1.00
       C69          C  0.8041816  0.6912080  0.8072779    0.00000       Uiso       1.00
       C70          C  0.7852498  0.7069526  0.7976330    0.00000       Uiso       1.00
       C71          C  0.7566798  0.7222396  0.8163686    0.00000       Uiso       1.00
       C72          C  0.7473027  0.7217100  0.8448209    0.00000       Uiso       1.00
       H41          H  0.7253479  0.7334772  0.8596578    0.00000       Uiso       1.00
       C73          C  0.8210639  0.6396940  0.9943916    0.00000       Uiso       1.00
       C74          C  0.8267662  0.6526753  0.0042266    0.00000       Uiso       1.00
       C75          C  0.8026693  0.6296234  0.0134730    0.00000       Uiso       1.00
       C76          C  0.7898377  0.6328096  0.0420494    0.00000       Uiso       1.00
       C77          C  0.7952907  0.6460919  0.0518842    0.00000       Uiso       1.00
       C78          C  0.8138366  0.6559986  0.0328096    0.00000       Uiso       1.00
       H42          H  0.8184863  0.6661857  0.0399277    0.00000       Uiso       1.00
       C79          C  0.9551501  0.6642599  0.8094802    0.00000       Uiso       1.00
       C80          C  0.9836680  0.6455772  0.7939445    0.00000       Uiso       1.00
       C81          C  0.9457659  0.6927253  0.8087952    0.00000       Uiso       1.00
       C82          C  0.9646971  0.7023707  0.7930510    0.00000       Uiso       1.00
       C83          C  0.9932674  0.6836357  0.7777633    0.00000       Uiso       1.00
       C84          C  0.0026448  0.6551834  0.7782917    0.00000       Uiso       1.00
       H43          H  0.0245997  0.6403469  0.7665239    0.00000       Uiso       1.00
       C85          C  0.8890085  0.5930015  0.8708484    0.00000       Uiso       1.00
       C86          C  0.9288883  0.5056096  0.8603019    0.00000       Uiso       1.00
       C87          C  0.8833588  0.5822334  0.8584695    0.00000       Uiso       1.00
       C88          C  0.9231871  0.4957753  0.8473196    0.00000       Uiso       1.00
       C89          C  0.9076081  0.5731753  0.8806933    0.00000       Uiso       1.00
       C90          C  0.9472845  0.4865281  0.8703712    0.00000       Uiso       1.00
       C91          C  0.9208686  0.5444178  0.8772166    0.00000       Uiso       1.00
       C92          C  0.9601167  0.4579518  0.8671838    0.00000       Uiso       1.00
       C93          C  0.9155743  0.5345566  0.8639346    0.00000       Uiso       1.00
       C94          C  0.9546636  0.4481175  0.8539011    0.00000       Uiso       1.00
       C95          C  0.8966663  0.5535499  0.8546579    0.00000       Uiso       1.00
       C96          C  0.9361171  0.4671925  0.8439952    0.00000       Uiso       1.00
       H44          H  0.9314673  0.4600747  0.8338078    0.00000       Uiso       1.00
       C97          C  0.8240840  0.6594386  0.8831025    0.00000       Uiso       1.00
       C98          C  0.8528600  0.6429918  0.8650953    0.00000       Uiso       1.00
       C99          C  0.8614614  0.6442870  0.8366709    0.00000       Uiso       1.00
      C100          C  0.8425029  0.6598082  0.8268597    0.00000       Uiso       1.00
      C101          C  0.8140681  0.6749409  0.8454286    0.00000       Uiso       1.00
      C102          C  0.8048821  0.6748511  0.8736116    0.00000       Uiso       1.00
       H45          H  0.8831981  0.6326303  0.8221710    0.00000       Uiso       1.00
      C103          C  0.8609750  0.6291317  0.9069796    0.00000       Uiso       1.00
      C104          C  0.8665550  0.6415735  0.9177466    0.00000       Uiso       1.00
      C105          C  0.8424072  0.6192786  0.9267983    0.00000       Uiso       1.00
      C106          C  0.8290910  0.6227943  0.9555646    0.00000       Uiso       1.00
      C107          C  0.8343523  0.6361034  0.9654316    0.00000       Uiso       1.00
      C108          C  0.8532369  0.6454059  0.9464355    0.00000       Uiso       1.00
       H46          H  0.8381488  0.6090127  0.9195615    0.00000       Uiso       1.00
      C109          C  0.8970944  0.6349028  0.8569889    0.00000       Uiso       1.00
      C110          C  0.9258749  0.6168986  0.8406088    0.00000       Uiso       1.00
      C111          C  0.8884789  0.6633352  0.8557039    0.00000       Uiso       1.00
      C112          C  0.9074386  0.6731451  0.8402300    0.00000       Uiso       1.00
      C113          C  0.9358773  0.6545767  0.8251041    0.00000       Uiso       1.00
      C114          C  0.9450692  0.6263935  0.8252075    0.00000       Uiso       1.00
       H47          H  0.8667285  0.6778564  0.8672367    0.00000       Uiso       1.00
       H48          H  0.9120702  0.5803176  0.8908325    0.00000       Uiso       1.00
      C115          C  0.8912613  0.5434577  0.8417683    0.00000       Uiso       1.00
      C116          C  0.9043616  0.5150470  0.8380879    0.00000       Uiso       1.00
      C117          C  0.7575005  0.7056255  0.8824833    0.00000       Uiso       1.00
      C118          C  0.7764943  0.6903347  0.8919047    0.00000       Uiso       1.00
      C119          C  0.8326344  0.6759401  0.7890745    0.00000       Uiso       1.00
      C120          C  0.8514727  0.6604650  0.7987154    0.00000       Uiso       1.00
      C121          C  0.9924499  0.6175178  0.7944039    0.00000       Uiso       1.00
      C122          C  0.9734569  0.6080966  0.8097255    0.00000       Uiso       1.00
      C123          C  0.8455679  0.6619373  0.9849472    0.00000       Uiso       1.00
      C124          C  0.8586425  0.6582917  0.9565301    0.00000       Uiso       1.00
      C125          C  0.7976291  0.6164633  0.0032224    0.00000       Uiso       1.00
      C126          C  0.8106052  0.6131307  0.9747416    0.00000       Uiso       1.00
       H49          H  0.0141161  0.6027541  0.7827476    0.00000       Uiso       1.00
       H50          H  0.9810585  0.5863364  0.8094567    0.00000       Uiso       1.00
       H51          H  0.8730700  0.6656246  0.9423732    0.00000       Uiso       1.00
       H52          H  0.8503247  0.6719426  0.9918513    0.00000       Uiso       1.00
       H53          H  0.8062003  0.6028462  0.9677020    0.00000       Uiso       1.00
       H54          H  0.7836181  0.6086235  0.0172895    0.00000       Uiso       1.00
       H55          H  0.7358341  0.7172856  0.8972448    0.00000       Uiso       1.00
       H56          H  0.7688919  0.6906202  0.9136625    0.00000       Uiso       1.00
       H57          H  0.8732007  0.6490086  0.7840285    0.00000       Uiso       1.00
       H58          H  0.8404170  0.6759871  0.7672253    0.00000       Uiso       1.00
      C127          C  0.8984702  0.7012914  0.8395504    0.00000       Uiso       1.00
      C128          C  0.9173120  0.7109295  0.8240679    0.00000       Uiso       1.00
       H59          H  0.8767413  0.7159820  0.8509928    0.00000       Uiso       1.00
       H60          H  0.9095304  0.7327794  0.8240134    0.00000       Uiso       1.00
      C129          C  0.9393790  0.5252380  0.8868498    0.00000       Uiso       1.00
      C130          C  0.9523422  0.4967645  0.8835217    0.00000       Uiso       1.00
       H61          H  0.8768204  0.5576119  0.8344507    0.00000       Uiso       1.00
       H62          H  0.8996033  0.5081421  0.8280848    0.00000       Uiso       1.00
       H63          H  0.9438128  0.5322695  0.8971093    0.00000       Uiso       1.00
       H64          H  0.9663645  0.4826916  0.8913473    0.00000       Uiso       1.00
        N9          N  0.7702927  0.6219299  0.0618191    0.00000       Uiso       1.00
       H65          H  0.7628784  0.6257601  0.0813347    0.00000       Uiso       1.00
       H66          H  0.7803888  0.6014369  0.0591122    0.00000       Uiso       1.00
       N10          N  0.8875470  0.6507934  0.8986341    0.00000       Uiso       1.00
       H67          H  0.8888074  0.6590722  0.9097401    0.00000       Uiso       1.00
       H68          H  0.8817874  0.6650097  0.8854256    0.00000       Uiso       1.00
       N11          N  0.9540426  0.7327950  0.7928266    0.00000       Uiso       1.00
       H69          H  0.9699742  0.7363791  0.7807257    0.00000       Uiso       1.00
       H70          H  0.9440659  0.7391573  0.8121840    0.00000       Uiso       1.00
       N12          N  0.9369958  0.5866532  0.8388746    0.00000       Uiso       1.00
       H71          H  0.9576342  0.5771259  0.8264610    0.00000       Uiso       1.00
       H72          H  0.9284617  0.5843528  0.8311536    0.00000       Uiso       1.00
       N13          N  0.9796622  0.4381817  0.8780628    0.00000       Uiso       1.00
       H73          H  0.9870769  0.4186662  0.8742318    0.00000       Uiso       1.00
       H74          H  0.9695665  0.4408877  0.8985559    0.00000       Uiso       1.00
       N14          N  0.8624310  0.6012463  0.8491564    0.00000       Uiso       1.00
       H75          H  0.8611812  0.5900610  0.8409569    0.00000       Uiso       1.00
       H76          H  0.8682408  0.6143850  0.8348557    0.00000       Uiso       1.00
       N15          N  0.8129699  0.6612271  0.9133357    0.00000       Uiso       1.00
       H77          H  0.8286138  0.6494109  0.9173589    0.00000       Uiso       1.00
       H78          H  0.7992938  0.6545165  0.9245414    0.00000       Uiso       1.00
       N16          N  0.7959039  0.7071782  0.7672088    0.00000       Uiso       1.00
       H79          H  0.7799719  0.7192792  0.7636251    0.00000       Uiso       1.00
       H80          H  0.8058807  0.6878210  0.7608457    0.00000       Uiso       1.00
      C131          C  0.7500007  0.8750092  0.3749719    0.00000       Uiso       1.00
      C132          C  0.6689536  0.0042634  0.3473199    0.00000       Uiso       1.00
      C133          C  0.6844888  0.9944283  0.3603018    0.00000       Uiso       1.00
      C134          C  0.6838040  0.0135098  0.3703718    0.00000       Uiso       1.00
      C135          C  0.6680592  0.0420862  0.3671857    0.00000       Uiso       1.00
      C136          C  0.6527714  0.0519210  0.3539033    0.00000       Uiso       1.00
      C137          C  0.6533002  0.0328463  0.3439966    0.00000       Uiso       1.00
       H81          H  0.6415322  0.0399645  0.3338096    0.00000       Uiso       1.00
      C138          C  0.7353142  0.8095170  0.3357359    0.00000       Uiso       1.00
      C139          C  0.7223322  0.7939812  0.3544186    0.00000       Uiso       1.00
      C140          C  0.7453836  0.8088319  0.3072705    0.00000       Uiso       1.00
      C141          C  0.7421965  0.7930877  0.2976250    0.00000       Uiso       1.00
      C142          C  0.7289141  0.7778000  0.3163600    0.00000       Uiso       1.00
      C143          C  0.7190080  0.7783284  0.3448123    0.00000       Uiso       1.00
       H82          H  0.7088210  0.7665607  0.3596488    0.00000       Uiso       1.00
      C144          C  0.7107543  0.8603387  0.4943862    0.00000       Uiso       1.00
      C145          C  0.7294379  0.8473564  0.5042204    0.00000       Uiso       1.00
      C146          C  0.6822888  0.8704080  0.5134677    0.00000       Uiso       1.00
      C147          C  0.6726440  0.8672207  0.5420440    0.00000       Uiso       1.00
      C148          C  0.6913798  0.8539380  0.5518783    0.00000       Uiso       1.00
      C149          C  0.7198322  0.8440320  0.5328032    0.00000       Uiso       1.00
       H83          H  0.7346694  0.8338447  0.5399210    0.00000       Uiso       1.00
      C150          C  0.7820104  0.8651133  0.3569877    0.00000       Uiso       1.00
      C151          C  0.8694034  0.8357799  0.3094740    0.00000       Uiso       1.00
      C152          C  0.7927787  0.8831416  0.3405702    0.00000       Uiso       1.00
      C153          C  0.8792378  0.8544632  0.2939389    0.00000       Uiso       1.00
      C154          C  0.8018368  0.8366691  0.3557599    0.00000       Uiso       1.00
      C155          C  0.8884852  0.8073146  0.3087877    0.00000       Uiso       1.00
      C156          C  0.8305947  0.8268852  0.3402627    0.00000       Uiso       1.00
      C157          C  0.9170617  0.7976697  0.2930431    0.00000       Uiso       1.00
      C158          C  0.8404561  0.8454612  0.3251076    0.00000       Uiso       1.00
      C159          C  0.9268963  0.8164053  0.2777562    0.00000       Uiso       1.00
      C160          C  0.8214625  0.8736457  0.3251938    0.00000       Uiso       1.00
      C161          C  0.9078210  0.8448576  0.2782857    0.00000       Uiso       1.00
       H84          H  0.9149389  0.8596945  0.2665185    0.00000       Uiso       1.00
      C162          C  0.7155718  0.9177838  0.3585026    0.00000       Uiso       1.00
      C163          C  0.7320195  0.9070148  0.3708309    0.00000       Uiso       1.00
      C164          C  0.7307248  0.9268372  0.3807277    0.00000       Uiso       1.00
      C165          C  0.7152036  0.9556068  0.3772914    0.00000       Uiso       1.00
      C166          C  0.7000698  0.9654729  0.3639902    0.00000       Uiso       1.00
      C167          C  0.7001590  0.9464765  0.3547141    0.00000       Uiso       1.00
       H85          H  0.7423824  0.9196002  0.3908071    0.00000       Uiso       1.00
      C168          C  0.7458789  0.8570163  0.3650847    0.00000       Uiso       1.00
      C169          C  0.7334370  0.8406696  0.3831061    0.00000       Uiso       1.00
      C170          C  0.7557313  0.8557656  0.3366642    0.00000       Uiso       1.00
      C171          C  0.7522148  0.8403161  0.3268637    0.00000       Uiso       1.00
      C172          C  0.7389057  0.8251881  0.3454336    0.00000       Uiso       1.00
      C173          C  0.7296039  0.8252992  0.3736204    0.00000       Uiso       1.00
       H86          H  0.7659974  0.8672606  0.3221402    0.00000       Uiso       1.00
      C174          C  0.7401094  0.8708867  0.4069747    0.00000       Uiso       1.00
      C175          C  0.7581145  0.8584859  0.4177502    0.00000       Uiso       1.00
      C176          C  0.7116769  0.8807872  0.4267920    0.00000       Uiso       1.00
      C177          C  0.7018678  0.8773009  0.4555612    0.00000       Uiso       1.00
      C178          C  0.7204369  0.8639880  0.4654306    0.00000       Uiso       1.00
      C179          C  0.7486203  0.8546928  0.4464389    0.00000       Uiso       1.00
       H87          H  0.6971550  0.8910049  0.4195636    0.00000       Uiso       1.00
       H88          H  0.7946945  0.8220679  0.3673640    0.00000       Uiso       1.00
      C180          C  0.8315549  0.8919401  0.3096970    0.00000       Uiso       1.00
      C181          C  0.8599659  0.8825203  0.2943862    0.00000       Uiso       1.00
      C182          C  0.6693835  0.9849865  0.3381087    0.00000       Uiso       1.00
      C183          C  0.6846744  0.9565716  0.3418107    0.00000       Uiso       1.00
      C184          C  0.6990728  0.0032601  0.3835560    0.00000       Uiso       1.00
      C185          C  0.7145474  0.9747807  0.3869183    0.00000       Uiso       1.00
      C186          C  0.7574975  0.8381152  0.4849426    0.00000       Uiso       1.00
      C187          C  0.7669181  0.8417868  0.4565288    0.00000       Uiso       1.00
      C188          C  0.7130716  0.7944572  0.3824824    0.00000       Uiso       1.00
      C189          C  0.7167180  0.8097992  0.3919113    0.00000       Uiso       1.00
      C190          C  0.7585437  0.8241226  0.2890706    0.00000       Uiso       1.00
      C191          C  0.7618777  0.8396252  0.2987147    0.00000       Uiso       1.00
       H89          H  0.7722618  0.8281049  0.4918446    0.00000       Uiso       1.00
       H90          H  0.7886784  0.8344539  0.4423701    0.00000       Uiso       1.00
       H91          H  0.7093856  0.8095282  0.4136716    0.00000       Uiso       1.00
       H92          H  0.7030663  0.7827963  0.3972442    0.00000       Uiso       1.00
       H93          H  0.7721624  0.8510696  0.2840255    0.00000       Uiso       1.00
       H94          H  0.7663830  0.8240666  0.2672201    0.00000       Uiso       1.00
       H95          H  0.6577226  0.9918917  0.3281030    0.00000       Uiso       1.00
       H96          H  0.6843885  0.9424164  0.3344938    0.00000       Uiso       1.00
       H97          H  0.7260045  0.9677393  0.3971893    0.00000       Uiso       1.00
       H98          H  0.6990265  0.0173263  0.3913855    0.00000       Uiso       1.00
      C192          C  0.6737211  0.8869491  0.4747394    0.00000       Uiso       1.00
      C193          C  0.6640836  0.8835895  0.5032190    0.00000       Uiso       1.00
       H99          H  0.6590298  0.8972358  0.4677018    0.00000       Uiso       1.00
      H100          H  0.6422336  0.8914256  0.5172876    0.00000       Uiso       1.00
      C194          C  0.8497747  0.7987418  0.3395922    0.00000       Uiso       1.00
      C195          C  0.8782486  0.7891067  0.3240814    0.00000       Uiso       1.00
      H101          H  0.8174004  0.9136985  0.3094111    0.00000       Uiso       1.00
      H102          H  0.8668709  0.8972813  0.2827234    0.00000       Uiso       1.00
      H103          H  0.8427431  0.7840487  0.3510571    0.00000       Uiso       1.00
      H104          H  0.8923216  0.7672588  0.3240302    0.00000       Uiso       1.00
       N17          N  0.7530755  0.7928632  0.2672008    0.00000       Uiso       1.00
      H105          H  0.7492448  0.7807624  0.2636166    0.00000       Uiso       1.00
      H106          H  0.7735688  0.7854740  0.2568035    0.00000       Uiso       1.00
       N18          N  0.7242178  0.8387896  0.4133176    0.00000       Uiso       1.00
      H107          H  0.7159389  0.8264235  0.4228564    0.00000       Uiso       1.00
      H108          H  0.7100017  0.8577576  0.4217747    0.00000       Uiso       1.00
       N19          N  0.6422194  0.8780996  0.5618141    0.00000       Uiso       1.00
      H109          H  0.6386357  0.8742687  0.5813296    0.00000       Uiso       1.00
      H110          H  0.6358564  0.8687192  0.5581999    0.00000       Uiso       1.00
       N20          N  0.7883603  0.8490992  0.3986252    0.00000       Uiso       1.00
      H111          H  0.7978883  0.8408743  0.4097357    0.00000       Uiso       1.00
      H112          H  0.7906607  0.8653542  0.3877912    0.00000       Uiso       1.00
       N21          N  0.9368322  0.7672455  0.2928176    0.00000       Uiso       1.00
      H113          H  0.9563478  0.7636618  0.2807165    0.00000       Uiso       1.00
      H114          H  0.9341255  0.7568485  0.2854279    0.00000       Uiso       1.00
       N22          N  0.7737656  0.9133824  0.3386563    0.00000       Uiso       1.00
      H115          H  0.7849509  0.9228317  0.3262214    0.00000       Uiso       1.00
      H116          H  0.7606271  0.9218730  0.3576049    0.00000       Uiso       1.00
       N23          N  0.7137825  0.8986653  0.3491768    0.00000       Uiso       1.00
      H117          H  0.7255988  0.8789983  0.3530038    0.00000       Uiso       1.00
      H118          H  0.7204925  0.9011360  0.3287904    0.00000       Uiso       1.00
       N24          N  0.6678345  0.0618559  0.3780653    0.00000       Uiso       1.00
      H119          H  0.6557331  0.0813715  0.3742352    0.00000       Uiso       1.00
      H120          H  0.6871920  0.0582420  0.3686848    0.00000       Uiso       1.00
      C196          C  0.3749773  0.3750216  0.1249806    0.00000       Uiso       1.00
      C197          C  0.3267691  0.2939755  0.1455322    0.00000       Uiso       1.00
      C198          C  0.3210684  0.3095106  0.1642155    0.00000       Uiso       1.00
      C199          C  0.3026728  0.3088244  0.1926808    0.00000       Uiso       1.00
      C200          C  0.2898408  0.2930798  0.2023257    0.00000       Uiso       1.00
      C201          C  0.2952934  0.2777928  0.1835901    0.00000       Uiso       1.00
      C202          C  0.3138391  0.2783223  0.1551378    0.00000       Uiso       1.00
      H121          H  0.3184885  0.2665551  0.1403009    0.00000       Uiso       1.00
      C203          C  0.4551551  0.3603383  0.0055672    0.00000       Uiso       1.00
      C204          C  0.4836718  0.3473571  0.9957321    0.00000       Uiso       1.00
      C205          C  0.4457694  0.3704090  0.9864857    0.00000       Uiso       1.00
      C206          C  0.4647004  0.3672228  0.9579093    0.00000       Uiso       1.00
      C207          C  0.4932706  0.3539405  0.9480745    0.00000       Uiso       1.00
      C208          C  0.5026486  0.3440337  0.9671491    0.00000       Uiso       1.00
      H122          H  0.5246036  0.3338467  0.9600310    0.00000       Uiso       1.00
      C209          C  0.4288956  0.3357725  0.1904784    0.00000       Uiso       1.00
      C210          C  0.4231949  0.3544552  0.2060142    0.00000       Uiso       1.00
      C211          C  0.4472917  0.3073071  0.1911635    0.00000       Uiso       1.00
      C212          C  0.4601242  0.2976617  0.2069077    0.00000       Uiso       1.00
      C213          C  0.4546716  0.3163967  0.2221954    0.00000       Uiso       1.00
      C214          C  0.4361252  0.3448489  0.2216670    0.00000       Uiso       1.00
      H123          H  0.4314759  0.3596855  0.2334348    0.00000       Uiso       1.00
      C215          C  0.3528637  0.4070309  0.1291104    0.00000       Uiso       1.00
      C216          C  0.2948049  0.4944228  0.1396568    0.00000       Uiso       1.00
      C217          C  0.3240669  0.4177991  0.1414891    0.00000       Uiso       1.00
      C218          C  0.2662869  0.5042570  0.1526391    0.00000       Uiso       1.00
      C219          C  0.3614818  0.4268571  0.1192654    0.00000       Uiso       1.00
      C220          C  0.3041888  0.5135043  0.1295875    0.00000       Uiso       1.00
      C221          C  0.3425082  0.4556146  0.1227422    0.00000       Uiso       1.00
      C222          C  0.2852573  0.5420806  0.1327748    0.00000       Uiso       1.00
      C223          C  0.3140707  0.4654757  0.1360241    0.00000       Uiso       1.00
      C224          C  0.2566871  0.5519149  0.1460575    0.00000       Uiso       1.00
      C225          C  0.3048793  0.4464825  0.1453008    0.00000       Uiso       1.00
      C226          C  0.2473097  0.5328398  0.1559636    0.00000       Uiso       1.00
      H124          H  0.2253548  0.5399576  0.1661509    0.00000       Uiso       1.00
      C227          C  0.3666305  0.3405939  0.1168562    0.00000       Uiso       1.00
      C228          C  0.3609524  0.3570406  0.1348634    0.00000       Uiso       1.00
      C229          C  0.3424247  0.3557453  0.1632877    0.00000       Uiso       1.00
      C230          C  0.3291761  0.3402242  0.1730990    0.00000       Uiso       1.00
      C231          C  0.3344431  0.3250914  0.1545301    0.00000       Uiso       1.00
      C232          C  0.3533503  0.3251813  0.1263471    0.00000       Uiso       1.00
      H125          H  0.3380046  0.3674021  0.1777878    0.00000       Uiso       1.00
      C233          C  0.3970917  0.3709007  0.0929791    0.00000       Uiso       1.00
      C234          C  0.4258805  0.3584589  0.0822121    0.00000       Uiso       1.00
      C235          C  0.3884896  0.3807538  0.0731604    0.00000       Uiso       1.00
      C236          C  0.4074555  0.3772380  0.0443940    0.00000       Uiso       1.00
      C237          C  0.4358927  0.3639290  0.0345272    0.00000       Uiso       1.00
      C238          C  0.4450839  0.3546264  0.0535232    0.00000       Uiso       1.00
      H126          H  0.3667284  0.3910197  0.0803972    0.00000       Uiso       1.00
      C239          C  0.3889914  0.3651295  0.1429697    0.00000       Uiso       1.00
      C240          C  0.3833877  0.3831338  0.1593498    0.00000       Uiso       1.00
      C241          C  0.4075233  0.3366972  0.1442548    0.00000       Uiso       1.00
      C242          C  0.4208191  0.3268874  0.1597287    0.00000       Uiso       1.00
      C243          C  0.4155634  0.3454556  0.1748546    0.00000       Uiso       1.00
      C244          C  0.3966754  0.3736389  0.1747512    0.00000       Uiso       1.00
      H127          H  0.4118271  0.3221759  0.1327220    0.00000       Uiso       1.00
      H128          H  0.3832256  0.4197148  0.1091262    0.00000       Uiso       1.00
      C245          C  0.2764924  0.4565747  0.1581904    0.00000       Uiso       1.00
      C246          C  0.2575015  0.4849854  0.1618709    0.00000       Uiso       1.00
      C247          C  0.3456148  0.2944069  0.1174754    0.00000       Uiso       1.00
      C248          C  0.3587391  0.3096977  0.1080540    0.00000       Uiso       1.00
      C249          C  0.2976543  0.3240922  0.2108842    0.00000       Uiso       1.00
      C250          C  0.3106584  0.3395674  0.2012433    0.00000       Uiso       1.00
      C251          C  0.4043767  0.3825146  0.2055548    0.00000       Uiso       1.00
      C252          C  0.3912842  0.3919358  0.1902332    0.00000       Uiso       1.00
      C253          C  0.4924581  0.3380951  0.0150115    0.00000       Uiso       1.00
      C254          C  0.4734698  0.3417407  0.0434286    0.00000       Uiso       1.00
      C255          C  0.4173184  0.3835691  0.9967363    0.00000       Uiso       1.00
      C256          C  0.3984832  0.3869016  0.0252170    0.00000       Uiso       1.00
      H129          H  0.3996230  0.3972782  0.2172111    0.00000       Uiso       1.00
      H130          H  0.3768568  0.4136960  0.1905020    0.00000       Uiso       1.00
      H131          H  0.4810734  0.3344078  0.0575855    0.00000       Uiso       1.00
      H132          H  0.5141243  0.3280898  0.0081073    0.00000       Uiso       1.00
      H133          H  0.3767539  0.3971862  0.0322567    0.00000       Uiso       1.00
      H134          H  0.4095349  0.3914088  0.9826692    0.00000       Uiso       1.00
      H135          H  0.3503700  0.2827468  0.1027139    0.00000       Uiso       1.00
      H136          H  0.3731802  0.3094122  0.0862962    0.00000       Uiso       1.00
      H137          H  0.3062430  0.3510238  0.2159302    0.00000       Uiso       1.00
      H138          H  0.2836345  0.3240454  0.2327333    0.00000       Uiso       1.00
      C257          C  0.4393174  0.2987410  0.1604083    0.00000       Uiso       1.00
      C258          C  0.4523149  0.2891028  0.1758908    0.00000       Uiso       1.00
      H139          H  0.4437216  0.2840503  0.1489659    0.00000       Uiso       1.00
      H140          H  0.4663286  0.2672530  0.1759454    0.00000       Uiso       1.00
      C259          C  0.3514720  0.4747944  0.1131089    0.00000       Uiso       1.00
      C260          C  0.3326334  0.5032679  0.1164371    0.00000       Uiso       1.00
      H141          H  0.2688881  0.4424204  0.1655080    0.00000       Uiso       1.00
      H142          H  0.2358353  0.4918902  0.1718739    0.00000       Uiso       1.00
      H143          H  0.3731967  0.4677629  0.1028494    0.00000       Uiso       1.00
      H144          H  0.3404085  0.5173408  0.1086114    0.00000       Uiso       1.00
       N25          N  0.4540455  0.3781025  0.9381396    0.00000       Uiso       1.00
      H145          H  0.4699770  0.3742723  0.9186240    0.00000       Uiso       1.00
      H146          H  0.4409416  0.3985955  0.9408464    0.00000       Uiso       1.00
       N26          N  0.4369800  0.3492389  0.1013246    0.00000       Uiso       1.00
      H147          H  0.4576252  0.3409602  0.0902185    0.00000       Uiso       1.00
      H148          H  0.4322281  0.3350226  0.1145331    0.00000       Uiso       1.00
       N27          N  0.4796696  0.2672374  0.2071321    0.00000       Uiso       1.00
      H149          H  0.4870844  0.2636532  0.2192330    0.00000       Uiso       1.00
      H150          H  0.4954127  0.2608750  0.1877747    0.00000       Uiso       1.00
       N28          N  0.3625288  0.4133792  0.1610840    0.00000       Uiso       1.00
      H151          H  0.3612262  0.4229065  0.1734977    0.00000       Uiso       1.00
      H152          H  0.3439733  0.4156796  0.1688051    0.00000       Uiso       1.00
       N29          N  0.2959116  0.5618507  0.1218959    0.00000       Uiso       1.00
      H153          H  0.2799798  0.5813661  0.1257269    0.00000       Uiso       1.00
      H154          H  0.3090152  0.5591446  0.1014028    0.00000       Uiso       1.00
       N30          N  0.3128389  0.3987861  0.1508023    0.00000       Uiso       1.00
      H155          H  0.2922043  0.4099714  0.1590019    0.00000       Uiso       1.00
      H156          H  0.3174867  0.3856474  0.1651030    0.00000       Uiso       1.00
       N31          N  0.3875382  0.3388053  0.0866229    0.00000       Uiso       1.00
      H157          H  0.3953891  0.3506215  0.0825998    0.00000       Uiso       1.00
      H158          H  0.3783571  0.3455158  0.0754173    0.00000       Uiso       1.00
       N32          N  0.2702961  0.2928542  0.2327499    0.00000       Uiso       1.00
      H159          H  0.2628815  0.2807532  0.2363336    0.00000       Uiso       1.00
      H160          H  0.2545527  0.3122114  0.2391130    0.00000       Uiso       1.00
      C261          C  0.9999868  0.1250232  0.6249868    0.00000       Uiso       1.00
      C262          C  0.0205400  0.9957690  0.6526388    0.00000       Uiso       1.00
      C263          C  0.0392239  0.0056041  0.6396569    0.00000       Uiso       1.00
      C264          C  0.0676889  0.9865226  0.6295869    0.00000       Uiso       1.00
      C265          C  0.0773343  0.9579462  0.6327730    0.00000       Uiso       1.00
      C266          C  0.0585989  0.9481114  0.6460554    0.00000       Uiso       1.00
      C267          C  0.0301462  0.9671861  0.6559621    0.00000       Uiso       1.00
      H161          H  0.0153094  0.9600679  0.6661492    0.00000       Uiso       1.00
      C268          C  0.8805719  0.1905154  0.6642228    0.00000       Uiso       1.00
      C269          C  0.8707367  0.2060512  0.6455401    0.00000       Uiso       1.00
      C270          C  0.8614906  0.1912005  0.6926882    0.00000       Uiso       1.00
      C271          C  0.8329139  0.2069447  0.7023337    0.00000       Uiso       1.00
      C272          C  0.8230788  0.2222324  0.6835987    0.00000       Uiso       1.00
      C273          C  0.8421534  0.2217040  0.6551464    0.00000       Uiso       1.00
      H162          H  0.8350351  0.2334718  0.6403099    0.00000       Uiso       1.00
      C274          C  0.0654843  0.1396936  0.5055726    0.00000       Uiso       1.00
      C275          C  0.0810198  0.1526759  0.4957382    0.00000       Uiso       1.00
      C276          C  0.0661696  0.1296244  0.4864910    0.00000       Uiso       1.00
      C277          C  0.0819138  0.1328117  0.4579147    0.00000       Uiso       1.00
      C278          C  0.0972012  0.1460944  0.4480804    0.00000       Uiso       1.00
      C279          C  0.0966726  0.1560004  0.4671555    0.00000       Uiso       1.00
      H163          H  0.1084402  0.1661877  0.4600377    0.00000       Uiso       1.00
      C280          C  0.0041162  0.1349191  0.6429710    0.00000       Uiso       1.00
      C281          C  0.0146619  0.1642525  0.6904847    0.00000       Uiso       1.00
      C282          C  0.0164953  0.1168908  0.6593885    0.00000       Uiso       1.00
      C283          C  0.0276446  0.1455691  0.7060198    0.00000       Uiso       1.00
      C284          C  0.9942707  0.1633632  0.6441988    0.00000       Uiso       1.00
      C285          C  0.0045921  0.1927178  0.6911709    0.00000       Uiso       1.00
      C286          C  0.9977473  0.1731472  0.6596960    0.00000       Uiso       1.00
      C287          C  0.0077792  0.2023627  0.7069156    0.00000       Uiso       1.00
      C288          C  0.0110294  0.1545712  0.6748511    0.00000       Uiso       1.00
      C289          C  0.0210623  0.1836271  0.7222025    0.00000       Uiso       1.00
      C290          C  0.0203067  0.1263867  0.6747649    0.00000       Uiso       1.00
      C291          C  0.0309689  0.1551748  0.7216730    0.00000       Uiso       1.00
      H164          H  0.0411565  0.1403379  0.7334402    0.00000       Uiso       1.00
      C292          C  0.9918633  0.0822486  0.6414561    0.00000       Uiso       1.00
      C293          C  0.0098701  0.0930175  0.6291278    0.00000       Uiso       1.00
      C294          C  0.0382948  0.0731952  0.6192309    0.00000       Uiso       1.00
      C295          C  0.0481067  0.0444257  0.6226673    0.00000       Uiso       1.00
      C296          C  0.0295379  0.0345594  0.6359685    0.00000       Uiso       1.00
      C297          C  0.0013545  0.0535559  0.6452446    0.00000       Uiso       1.00
      H165          H  0.0527947  0.0804321  0.6091516    0.00000       Uiso       1.00
      C298          C  0.9679848  0.1430161  0.6348740    0.00000       Uiso       1.00
      C299          C  0.9572175  0.1593629  0.6168526    0.00000       Uiso       1.00
      C300          C  0.9481660  0.1442668  0.6632945    0.00000       Uiso       1.00
      C301          C  0.9193994  0.1597163  0.6730950    0.00000       Uiso       1.00
      C302          C  0.9095322  0.1748443  0.6545251    0.00000       Uiso       1.00
      C303          C  0.9285284  0.1747331  0.6263382    0.00000       Uiso       1.00
      H166          H  0.9554031  0.1327717  0.6778185    0.00000       Uiso       1.00
      C304          C  0.0179757  0.1291456  0.5929840    0.00000       Uiso       1.00
      C305          C  0.0343556  0.1415464  0.5822085    0.00000       Uiso       1.00
      C306          C  0.0192610  0.1192452  0.5731667    0.00000       Uiso       1.00
      C307          C  0.0347349  0.1227314  0.5443975    0.00000       Uiso       1.00
      C308          C  0.0498605  0.1360443  0.5345281    0.00000       Uiso       1.00
      C309          C  0.0497569  0.1453396  0.5535198    0.00000       Uiso       1.00
      H167          H  0.0077284  0.1090275  0.5803952    0.00000       Uiso       1.00
      H168          H  0.9841313  0.1779645  0.6325946    0.00000       Uiso       1.00
      C310          C  0.0331967  0.1080923  0.6902617    0.00000       Uiso       1.00
      C311          C  0.0368770  0.1175122  0.7055725    0.00000       Uiso       1.00
      C312          C  0.9924838  0.0150459  0.6618500    0.00000       Uiso       1.00
      C313          C  0.9830618  0.0434608  0.6581480    0.00000       Uiso       1.00
      C314          C  0.0858921  0.9967723  0.6164027    0.00000       Uiso       1.00
      C315          C  0.0762514  0.0252517  0.6130404    0.00000       Uiso       1.00
      C316          C  0.0805602  0.1619172  0.5150161    0.00000       Uiso       1.00
      C317          C  0.0652386  0.1582456  0.5434299    0.00000       Uiso       1.00
      C318          C  0.8900160  0.2055752  0.6174763    0.00000       Uiso       1.00
      C319          C  0.9184333  0.1902332  0.6080474    0.00000       Uiso       1.00
      C320          C  0.8717416  0.1759098  0.7108881    0.00000       Uiso       1.00
      C321          C  0.9002223  0.1604072  0.7012440    0.00000       Uiso       1.00
      H169          H  0.0922163  0.1719275  0.5081141    0.00000       Uiso       1.00
      H170          H  0.0655073  0.1655785  0.5575886    0.00000       Uiso       1.00
      H171          H  0.9325903  0.1905041  0.5862871    0.00000       Uiso       1.00
      H172          H  0.8831116  0.2172360  0.6027145    0.00000       Uiso       1.00
      H173          H  0.9072623  0.1489628  0.7159331    0.00000       Uiso       1.00
      H174          H  0.8576744  0.1759657  0.7327386    0.00000       Uiso       1.00
      H175          H  0.9777224  0.0081407  0.6718557    0.00000       Uiso       1.00
      H176          H  0.9613037  0.0576160  0.6654649    0.00000       Uiso       1.00
      H177          H  0.0909382  0.0322930  0.6027694    0.00000       Uiso       1.00
      H178          H  0.1077415  0.9827061  0.6085732    0.00000       Uiso       1.00
      C322          C  0.0354146  0.1130833  0.5252193    0.00000       Uiso       1.00
      C323          C  0.0508972  0.1164429  0.4967397    0.00000       Uiso       1.00
      H179          H  0.0239725  0.1027966  0.5322568    0.00000       Uiso       1.00
      H180          H  0.0509519  0.1086068  0.4826711    0.00000       Uiso       1.00
      C324          C  0.9881134  0.2012906  0.6603665    0.00000       Uiso       1.00
      C325          C  0.9914414  0.2109257  0.6758773    0.00000       Uiso       1.00
      H181          H  0.0405148  0.0863339  0.6905476    0.00000       Uiso       1.00
      H182          H  0.0468803  0.1027511  0.7172353    0.00000       Uiso       1.00
      H183          H  0.9778537  0.2159837  0.6489016    0.00000       Uiso       1.00
      H184          H  0.9836153  0.2327735  0.6759285    0.00000       Uiso       1.00
       N33          N  0.8131441  0.2071691  0.7327579    0.00000       Uiso       1.00
      H185          H  0.7936283  0.2192700  0.7363421    0.00000       Uiso       1.00
      H186          H  0.8158509  0.2145583  0.7431552    0.00000       Uiso       1.00
       N34          N  0.9763300  0.1612428  0.5866411    0.00000       Uiso       1.00
      H187          H  0.9652237  0.1736089  0.5771023    0.00000       Uiso       1.00
      H188          H  0.9895390  0.1422748  0.5781840    0.00000       Uiso       1.00
       N35          N  0.0821384  0.1219327  0.4381445    0.00000       Uiso       1.00
      H189          H  0.0942393  0.1257637  0.4186291    0.00000       Uiso       1.00
      H190          H  0.0627808  0.1313131  0.4417588    0.00000       Uiso       1.00
       N36          N  0.0360896  0.1509331  0.6013335    0.00000       Uiso       1.00
      H191          H  0.0485031  0.1591581  0.5902230    0.00000       Uiso       1.00
      H192          H  0.0438109  0.1346782  0.6121675    0.00000       Uiso       1.00
       N37          N  0.9968998  0.2327869  0.7071412    0.00000       Uiso       1.00
      H193          H  0.0007305  0.2363706  0.7192422    0.00000       Uiso       1.00
      H194          H  0.9764065  0.2431839  0.7145308    0.00000       Uiso       1.00
       N38          N  0.0258091  0.0866500  0.6613023    0.00000       Uiso       1.00
      H195          H  0.0340088  0.0772008  0.6737372    0.00000       Uiso       1.00
      H196          H  0.0401099  0.0781594  0.6423538    0.00000       Uiso       1.00
       N39          N  0.9616295  0.1013671  0.6507819    0.00000       Uiso       1.00
      H197          H  0.9576060  0.1210340  0.6469549    0.00000       Uiso       1.00
      H198          H  0.9504238  0.0988964  0.6711683    0.00000       Uiso       1.00
       N40          N  0.1077590  0.9381765  0.6218933    0.00000       Uiso       1.00
      H199          H  0.1113431  0.9186609  0.6257235    0.00000       Uiso       1.00
      H200          H  0.1141220  0.9417905  0.6312739    0.00000       Uiso       1.00
      C326          C  0.2499759  0.0000130  0.9999675    0.00000       Uiso       1.00
      C327          C  0.3792291  0.9518070  0.8912663    0.00000       Uiso       1.00
      C328          C  0.3693949  0.9461056  0.9197837    0.00000       Uiso       1.00
      C329          C  0.3884768  0.9277098  0.9291674    0.00000       Uiso       1.00
      C330          C  0.4170534  0.9148782  0.9102359    0.00000       Uiso       1.00
      C331          C  0.4268876  0.9203315  0.8816662    0.00000       Uiso       1.00
      C332          C  0.4078121  0.9388775  0.8722892    0.00000       Uiso       1.00
      H201          H  0.4149298  0.9435275  0.8503345    0.00000       Uiso       1.00
      C333          C  0.1844806  0.0801924  0.9460488    0.00000       Uiso       1.00
      C334          C  0.1689449  0.1087099  0.9517503    0.00000       Uiso       1.00
      C335          C  0.1837946  0.0708088  0.9276529    0.00000       Uiso       1.00
      C336          C  0.1680496  0.0897402  0.9148213    0.00000       Uiso       1.00
      C337          C  0.1527621  0.1183099  0.9202747    0.00000       Uiso       1.00
      C338          C  0.1532914  0.1276870  0.9388208    0.00000       Uiso       1.00
      H202          H  0.1415237  0.1496416  0.9434707    0.00000       Uiso       1.00
      C339          C  0.2353100  0.0539268  0.0801356    0.00000       Uiso       1.00
      C340          C  0.2223282  0.0482253  0.1086530    0.00000       Uiso       1.00
      C341          C  0.2453797  0.0723226  0.0707520    0.00000       Uiso       1.00
      C342          C  0.2421932  0.0851542  0.0896834    0.00000       Uiso       1.00
      C343          C  0.2289109  0.0797009  0.1182531    0.00000       Uiso       1.00
      C344          C  0.2190045  0.0611548  0.1276302    0.00000       Uiso       1.00
      H203          H  0.2088176  0.0565049  0.1495847    0.00000       Uiso       1.00
      C345          C  0.2400801  0.9778985  0.0139927    0.00000       Uiso       1.00
      C346          C  0.2107460  0.9198400  0.0538705    0.00000       Uiso       1.00
      C347          C  0.2581083  0.9491022  0.0083427    0.00000       Uiso       1.00
      C348          C  0.2294293  0.8913226  0.0481691    0.00000       Uiso       1.00
      C349          C  0.2116357  0.9865162  0.0325917    0.00000       Uiso       1.00
      C350          C  0.1822805  0.9292235  0.0722664    0.00000       Uiso       1.00
      C351          C  0.2018515  0.9675428  0.0458518    0.00000       Uiso       1.00
      C352          C  0.1726353  0.9102921  0.0850980    0.00000       Uiso       1.00
      C353          C  0.2204275  0.9391057  0.0405572    0.00000       Uiso       1.00
      C354          C  0.1913709  0.8817225  0.0796446    0.00000       Uiso       1.00
      C355          C  0.2486122  0.9299147  0.0216496    0.00000       Uiso       1.00
      C356          C  0.2198234  0.8723453  0.0610986    0.00000       Uiso       1.00
      H204          H  0.2346603  0.8503908  0.0564486    0.00000       Uiso       1.00
      C357          C  0.2927494  0.9916672  0.9490693    0.00000       Uiso       1.00
      C358          C  0.2819809  0.9859883  0.9778448    0.00000       Uiso       1.00
      C359          C  0.3018041  0.9674602  0.9864461    0.00000       Uiso       1.00
      C360          C  0.3305737  0.9542121  0.9674881    0.00000       Uiso       1.00
      C361          C  0.3404394  0.9594799  0.9390536    0.00000       Uiso       1.00
      C362          C  0.3214422  0.9783873  0.9298676    0.00000       Uiso       1.00
      H205          H  0.2945688  0.9630388  0.0081829    0.00000       Uiso       1.00
      C363          C  0.2319822  0.0221278  0.9859595    0.00000       Uiso       1.00
      C364          C  0.2156355  0.0509161  0.9915398    0.00000       Uiso       1.00
      C365          C  0.2307306  0.0135267  0.9673917    0.00000       Uiso       1.00
      C366          C  0.2152803  0.0324929  0.9540755    0.00000       Uiso       1.00
      C367          C  0.2001525  0.0609296  0.9593371    0.00000       Uiso       1.00
      C368          C  0.2002645  0.0701199  0.9782218    0.00000       Uiso       1.00
      H206          H  0.2422248  0.9917655  0.9631331    0.00000       Uiso       1.00
      C369          C  0.2458555  0.0140254  0.0220792    0.00000       Uiso       1.00
      C370          C  0.2334552  0.0084209  0.0508594    0.00000       Uiso       1.00
      C371          C  0.2557563  0.0325570  0.0134644    0.00000       Uiso       1.00
      C372          C  0.2522710  0.0458519  0.0324244    0.00000       Uiso       1.00
      C373          C  0.2389585  0.0405955  0.0608625    0.00000       Uiso       1.00
      C374          C  0.2296629  0.0217077  0.0700538    0.00000       Uiso       1.00
      H207          H  0.2659726  0.0368621  0.9917141    0.00000       Uiso       1.00
      H208          H  0.1970352  0.0082601  0.0370541    0.00000       Uiso       1.00
      C375          C  0.2669067  0.9015281  0.0162443    0.00000       Uiso       1.00
      C376          C  0.2574866  0.8825374  0.0293440    0.00000       Uiso       1.00
      C377          C  0.3599517  0.9706531  0.8824866    0.00000       Uiso       1.00
      C378          C  0.3315367  0.9837770  0.9014801    0.00000       Uiso       1.00
      C379          C  0.3782277  0.9226905  0.9576198    0.00000       Uiso       1.00
      C380          C  0.3497484  0.9356941  0.9764578    0.00000       Uiso       1.00
      C381          C  0.2130865  0.0294074  0.1174343    0.00000       Uiso       1.00
      C382          C  0.2167573  0.0163158  0.0984412    0.00000       Uiso       1.00
      C383          C  0.1694218  0.1174940  0.9705532    0.00000       Uiso       1.00
      C384          C  0.1847645  0.0985054  0.9836277    0.00000       Uiso       1.00
      C385          C  0.1990852  0.0423583  0.9226124    0.00000       Uiso       1.00
      C386          C  0.2145885  0.0235215  0.9355896    0.00000       Uiso       1.00
      H209          H  0.2030766  0.0246532  0.1391003    0.00000       Uiso       1.00
      H210          H  0.2094242  0.0018886  0.1060424    0.00000       Uiso       1.00
      H211          H  0.1844943  0.1061083  0.9980555    0.00000       Uiso       1.00
      H212          H  0.1577611  0.1391599  0.9753103    0.00000       Uiso       1.00
      H213          H  0.2260329  0.0017927  0.9311845    0.00000       Uiso       1.00
      H214          H  0.1990286  0.0345754  0.9086012    0.00000       Uiso       1.00
      H215          H  0.3668565  0.9754089  0.8608205    0.00000       Uiso       1.00
      H216          H  0.3173810  0.9982183  0.8938779    0.00000       Uiso       1.00
      H217          H  0.3427075  0.9312782  0.9981856    0.00000       Uiso       1.00
      H218          H  0.3922945  0.9086704  0.9654022    0.00000       Uiso       1.00
      C387          C  0.2619195  0.0643499  0.0234564    0.00000       Uiso       1.00
      C388          C  0.2585607  0.0773465  0.0422985    0.00000       Uiso       1.00
      H219          H  0.2722058  0.0687547  0.0017278    0.00000       Uiso       1.00
      H220          H  0.2663971  0.0913601  0.0345173    0.00000       Uiso       1.00
      C389          C  0.1737079  0.9765062  0.0643617    0.00000       Uiso       1.00
      C390          C  0.1640725  0.9576678  0.0773243    0.00000       Uiso       1.00
      H221          H  0.2886652  0.8939242  0.0018037    0.00000       Uiso       1.00
      H222          H  0.2722476  0.8608716  0.0245856    0.00000       Uiso       1.00
      H223          H  0.1590148  0.9982307  0.0687956    0.00000       Uiso       1.00
      H224          H  0.1422245  0.9654426  0.0913464    0.00000       Uiso       1.00
       N41          N  0.1678243  0.0790863  0.8952762    0.00000       Uiso       1.00
      H225          H  0.1557229  0.0950179  0.8878620    0.00000       Uiso       1.00
      H226          H  0.1604349  0.0659824  0.9053718    0.00000       Uiso       1.00
       N42          N  0.2137576  0.0620140  0.0125323    0.00000       Uiso       1.00
      H227          H  0.2013914  0.0826589  0.0137928    0.00000       Uiso       1.00
      H228          H  0.2327261  0.0572620  0.0067729    0.00000       Uiso       1.00
       N43          N  0.2530725  0.1046994  0.0790294    0.00000       Uiso       1.00
      H229          H  0.2492421  0.1121136  0.0949611    0.00000       Uiso       1.00
      H230          H  0.2436916  0.1204427  0.0690529    0.00000       Uiso       1.00
       N44          N  0.2240674  0.9875619  0.0619797    0.00000       Uiso       1.00
      H231          H  0.2158429  0.9862588  0.0826179    0.00000       Uiso       1.00
      H232          H  0.2403224  0.9690068  0.0534456    0.00000       Uiso       1.00
       N45          N  0.1422109  0.9209461  0.1046431    0.00000       Uiso       1.00
      H233          H  0.1386269  0.9050144  0.1120573    0.00000       Uiso       1.00
      H234          H  0.1318132  0.9340500  0.0945475    0.00000       Uiso       1.00
       N46          N  0.2883482  0.9378753  0.9874149    0.00000       Uiso       1.00
      H235          H  0.2977974  0.9172410  0.9861649    0.00000       Uiso       1.00
      H236          H  0.2968394  0.9425228  0.9932250    0.00000       Uiso       1.00
       N47          N  0.2736308  0.0125756  0.9379551    0.00000       Uiso       1.00
      H237          H  0.2539638  0.0204260  0.9535988    0.00000       Uiso       1.00
      H238          H  0.2761010  0.0033951  0.9242789    0.00000       Uiso       1.00
       N48          N  0.4368239  0.8953330  0.9208899    0.00000       Uiso       1.00
      H239          H  0.4563395  0.8879188  0.9049582    0.00000       Uiso       1.00
      H240          H  0.4332100  0.8795896  0.9308664    0.00000       Uiso       1.00
      C391          C  0.6389318  0.6089635  0.3220112    0.00000       Uiso       1.00
      C392          C  0.6542444  0.6150076  0.2945802    0.00000       Uiso       1.00
      C393          C  0.6571870  0.6067935  0.2727977    0.00000       Uiso       1.00
      C394          C  0.6736117  0.6119958  0.2455239    0.00000       Uiso       1.00
      C395          C  0.6889493  0.6239273  0.2392439    0.00000       Uiso       1.00
      C396          C  0.6860231  0.6317495  0.2614039    0.00000       Uiso       1.00
      C397          C  0.6672471  0.6295053  0.2889957    0.00000       Uiso       1.00
        O1          O  0.6259771  0.5939651  0.3309710    0.00000       Uiso       1.00
      H241          H  0.6996244  0.6380960  0.2572446    0.00000       Uiso       1.00
      C398          C  0.7113427  0.7356994  0.3049208    0.00000       Uiso       1.00
      C399          C  0.6992298  0.7204016  0.3109951    0.00000       Uiso       1.00
      C400          C  0.6804450  0.7174954  0.3380746    0.00000       Uiso       1.00
      C401          C  0.6693881  0.7012134  0.3438031    0.00000       Uiso       1.00
      C402          C  0.6782428  0.6859979  0.3228186    0.00000       Uiso       1.00
      C403          C  0.6975402  0.6888298  0.2957465    0.00000       Uiso       1.00
      C404          C  0.7065405  0.7074620  0.2891231    0.00000       Uiso       1.00
        O2          O  0.7071853  0.7486767  0.3240181    0.00000       Uiso       1.00
      H242          H  0.6742334  0.7281138  0.3546934    0.00000       Uiso       1.00
      H243          H  0.6540793  0.7005370  0.3647784    0.00000       Uiso       1.00
      H244          H  0.7068574  0.6752990  0.2799438    0.00000       Uiso       1.00
      C405          C  0.7665400  0.6633413  0.1229483    0.00000       Uiso       1.00
      C406          C  0.7605134  0.6754455  0.1442741    0.00000       Uiso       1.00
      C407          C  0.7688333  0.6942129  0.1388718    0.00000       Uiso       1.00
      C408          C  0.7635260  0.7052690  0.1604681    0.00000       Uiso       1.00
      C409          C  0.7513811  0.6964309  0.1878181    0.00000       Uiso       1.00
      C410          C  0.7435684  0.6771618  0.1927674    0.00000       Uiso       1.00
      C411          C  0.7459353  0.6681715  0.1717583    0.00000       Uiso       1.00
        O3          O  0.7814301  0.6676196  0.0950460    0.00000       Uiso       1.00
      H245          H  0.7792464  0.7003941  0.1178350    0.00000       Uiso       1.00
      H246          H  0.7692220  0.7205563  0.1554509    0.00000       Uiso       1.00
      H247          H  0.7370636  0.6678301  0.2127712    0.00000       Uiso       1.00
      C412          C  0.7584810  0.6447953  0.1281896    0.00000       Uiso       1.00
      C413          C  0.7429447  0.6380649  0.1551687    0.00000       Uiso       1.00
      C414          C  0.7346313  0.6192536  0.1606493    0.00000       Uiso       1.00
      C415          C  0.7181105  0.6138093  0.1877531    0.00000       Uiso       1.00
      C416          C  0.7079841  0.6283528  0.2099745    0.00000       Uiso       1.00
      C417          C  0.7162451  0.6474856  0.2040620    0.00000       Uiso       1.00
      C418          C  0.7353238  0.6509910  0.1772669    0.00000       Uiso       1.00
        O4          O  0.7666485  0.6350021  0.1043213    0.00000       Uiso       1.00
      H248          H  0.7065352  0.6609232  0.2201263    0.00000       Uiso       1.00
      C419          C  0.7298650  0.7385017  0.2783211    0.00000       Uiso       1.00
      C420          C  0.7366083  0.7270523  0.2560717    0.00000       Uiso       1.00
      C421          C  0.7554153  0.7299547  0.2290052    0.00000       Uiso       1.00
      C422          C  0.7610741  0.7192221  0.2069592    0.00000       Uiso       1.00
      C423          C  0.7466983  0.7069349  0.2113111    0.00000       Uiso       1.00
      C424          C  0.7274734  0.7046494  0.2386872    0.00000       Uiso       1.00
      C425          C  0.7237755  0.7125143  0.2613246    0.00000       Uiso       1.00
        O5          O  0.7398057  0.7541158  0.2765485    0.00000       Uiso       1.00
      H249          H  0.7658559  0.7403630  0.2251076    0.00000       Uiso       1.00
      H250          H  0.7766013  0.7208537  0.1865819    0.00000       Uiso       1.00
      H251          H  0.7141340  0.6981628  0.2423786    0.00000       Uiso       1.00
      C426          C  0.6361777  0.6170327  0.3433233    0.00000       Uiso       1.00
      C427          C  0.6476220  0.6325335  0.3386241    0.00000       Uiso       1.00
      C428          C  0.6447139  0.6407858  0.3603432    0.00000       Uiso       1.00
      C429          C  0.6554382  0.6571743  0.3552904    0.00000       Uiso       1.00
      C430          C  0.6677355  0.6671945  0.3286293    0.00000       Uiso       1.00
      C431          C  0.6700383  0.6590313  0.3071110    0.00000       Uiso       1.00
      C432          C  0.6621683  0.6400955  0.3112765    0.00000       Uiso       1.00
        O6          O  0.6206526  0.6088220  0.3689196    0.00000       Uiso       1.00
      H252          H  0.6342997  0.6342255  0.3811772    0.00000       Uiso       1.00
      H253          H  0.6537894  0.6620157  0.3724631    0.00000       Uiso       1.00
      H254          H  0.6765330  0.6686477  0.2872694    0.00000       Uiso       1.00
        B1          B  0.6144347  0.5940818  0.3607013    0.00000       Uiso       1.00
        B2          B  0.7253146  0.7603728  0.3057271    0.00000       Uiso       1.00
        B3          B  0.7812200  0.6495510  0.0834944    0.00000       Uiso       1.00
      H255          H  0.6466056  0.5965212  0.2768507    0.00000       Uiso       1.00
      H256          H  0.6743436  0.6062826  0.2295203    0.00000       Uiso       1.00
      H257          H  0.7410943  0.6085579  0.1439732    0.00000       Uiso       1.00
      H258          H  0.7131826  0.5983385  0.1909872    0.00000       Uiso       1.00
      C433          C  0.5699108  0.3910689  0.6779475    0.00000       Uiso       1.00
      C434          C  0.5638365  0.3850247  0.7053785    0.00000       Uiso       1.00
      C435          C  0.5367825  0.3932388  0.7271609    0.00000       Uiso       1.00
      C436          C  0.5311356  0.3880366  0.7544348    0.00000       Uiso       1.00
      C437          C  0.5521248  0.3761051  0.7607147    0.00000       Uiso       1.00
      C438          C  0.5791808  0.3682829  0.7385548    0.00000       Uiso       1.00
      C439          C  0.5857523  0.3705271  0.7109630    0.00000       Uiso       1.00
        O7          O  0.5509175  0.4060673  0.6689878    0.00000       Uiso       1.00
      H259          H  0.5949692  0.3619364  0.7427142    0.00000       Uiso       1.00
      C440          C  0.7519674  0.2643330  0.6950378    0.00000       Uiso       1.00
      C441          C  0.7306311  0.2796308  0.6889636    0.00000       Uiso       1.00
      C442          C  0.7360195  0.2825370  0.6618841    0.00000       Uiso       1.00
      C443          C  0.7144091  0.2988190  0.6561556    0.00000       Uiso       1.00
      C444          C  0.6870638  0.3140345  0.6771400    0.00000       Uiso       1.00
      C445          C  0.6821209  0.3112026  0.7042122    0.00000       Uiso       1.00
      C446          C  0.7031302  0.2925703  0.7108356    0.00000       Uiso       1.00
        O8          O  0.7798847  0.2513556  0.6759406    0.00000       Uiso       1.00
      H260          H  0.7570453  0.2719185  0.6452653    0.00000       Uiso       1.00
      H261          H  0.7193992  0.2994954  0.6351804    0.00000       Uiso       1.00
      H262          H  0.6621046  0.3247333  0.7200149    0.00000       Uiso       1.00
      C447          C  0.5528336  0.3366910  0.8770105    0.00000       Uiso       1.00
      C448          C  0.5802372  0.3245869  0.8556846    0.00000       Uiso       1.00
      C449          C  0.6019222  0.3058195  0.8610869    0.00000       Uiso       1.00
      C450          C  0.6292673  0.2947633  0.8394906    0.00000       Uiso       1.00
      C451          C  0.6356343  0.3036015  0.8121406    0.00000       Uiso       1.00
      C452          C  0.6135018  0.3228706  0.8071914    0.00000       Uiso       1.00
      C453          C  0.5858693  0.3318609  0.8282004    0.00000       Uiso       1.00
        O9          O  0.5440997  0.3324128  0.9049127    0.00000       Uiso       1.00
      H263          H  0.5974796  0.2996383  0.8821236    0.00000       Uiso       1.00
      H264          H  0.6452334  0.2794760  0.8445078    0.00000       Uiso       1.00
      H265          H  0.6176692  0.3322022  0.7871875    0.00000       Uiso       1.00
      C454          C  0.5314698  0.3552371  0.8717691    0.00000       Uiso       1.00
      C455          C  0.5361823  0.3619675  0.8447900    0.00000       Uiso       1.00
      C456          C  0.5145382  0.3807788  0.8393095    0.00000       Uiso       1.00
      C457          C  0.5196770  0.3862230  0.8122056    0.00000       Uiso       1.00
      C458          C  0.5463156  0.3716795  0.7899842    0.00000       Uiso       1.00
      C459          C  0.5677968  0.3525468  0.7958966    0.00000       Uiso       1.00
      C460          C  0.5635859  0.3490413  0.8226918    0.00000       Uiso       1.00
       O10          O  0.5059759  0.3650303  0.8956373    0.00000       Uiso       1.00
      H266          H  0.5875889  0.3391092  0.7798324    0.00000       Uiso       1.00
      C461          C  0.7466922  0.2615307  0.7216376    0.00000       Uiso       1.00
      C462          C  0.7197368  0.2729802  0.7438869    0.00000       Uiso       1.00
      C463          C  0.7143795  0.2700778  0.7709534    0.00000       Uiso       1.00
      C464          C  0.6872597  0.2808103  0.7929995    0.00000       Uiso       1.00
      C465          C  0.6649486  0.2930976  0.7886476    0.00000       Uiso       1.00
      C466          C  0.6708144  0.2953830  0.7612714    0.00000       Uiso       1.00
      C467          C  0.6976188  0.2875180  0.7386341    0.00000       Uiso       1.00
       O11          O  0.7704745  0.2459166  0.7234102    0.00000       Uiso       1.00
      H267          H  0.7313309  0.2596694  0.7748511    0.00000       Uiso       1.00
      H268          H  0.6840413  0.2791786  0.8133768    0.00000       Uiso       1.00
      H269          H  0.6546798  0.3018696  0.7575801    0.00000       Uiso       1.00
      C468          C  0.5965380  0.3829997  0.6566355    0.00000       Uiso       1.00
      C469          C  0.6187842  0.3674988  0.6613345    0.00000       Uiso       1.00
      C470          C  0.6458474  0.3592466  0.6396155    0.00000       Uiso       1.00
      C471          C  0.6679074  0.3428581  0.6446683    0.00000       Uiso       1.00
      C472          C  0.6635638  0.3328378  0.6713294    0.00000       Uiso       1.00
      C473          C  0.6361849  0.3410011  0.6928477    0.00000       Uiso       1.00
      C474          C  0.6135447  0.3599369  0.6886822    0.00000       Uiso       1.00
       O12          O  0.5983987  0.3912103  0.6310390    0.00000       Uiso       1.00
      H270          H  0.6497069  0.3658069  0.6187815    0.00000       Uiso       1.00
      H271          H  0.6882728  0.3380167  0.6274956    0.00000       Uiso       1.00
      H272          H  0.6324545  0.3313847  0.7126893    0.00000       Uiso       1.00
        B4          B  0.5692222  0.4059506  0.6392574    0.00000       Uiso       1.00
        B5          B  0.7914191  0.2396596  0.6942316    0.00000       Uiso       1.00
        B6          B  0.5142694  0.3504813  0.9164643    0.00000       Uiso       1.00
      H273          H  0.5199816  0.4035112  0.7231081    0.00000       Uiso       1.00
      H274          H  0.5101506  0.3937498  0.7704384    0.00000       Uiso       1.00
      H275          H  0.4936294  0.3914745  0.8559855    0.00000       Uiso       1.00
      H276          H  0.5025123  0.4016939  0.8089715    0.00000       Uiso       1.00
      C475          C  0.6078294  0.1230466  0.3391869    0.00000       Uiso       1.00
      C476          C  0.5906521  0.1443838  0.3289494    0.00000       Uiso       1.00
      C477          C  0.5825132  0.1390369  0.3153843    0.00000       Uiso       1.00
      C478          C  0.5664061  0.1606464  0.3041437    0.00000       Uiso       1.00
      C479          C  0.5595131  0.1879149  0.3047158    0.00000       Uiso       1.00
      C480          C  0.5681980  0.1928271  0.3181688    0.00000       Uiso       1.00
      C481          C  0.5818260  0.1718491  0.3321484    0.00000       Uiso       1.00
       O13          O  0.6188617  0.0951541  0.3370072    0.00000       Uiso       1.00
      H277          H  0.5886075  0.1180401  0.3136923    0.00000       Uiso       1.00
      H278          H  0.5596641  0.1557227  0.2948575    0.00000       Uiso       1.00
      H279          H  0.5658011  0.2127677  0.3163999    0.00000       Uiso       1.00
      C482          C  0.5357748  0.3220682  0.3941041    0.00000       Uiso       1.00
      C483          C  0.5460129  0.2946537  0.3899433    0.00000       Uiso       1.00
      C484          C  0.5595784  0.2729502  0.4034287    0.00000       Uiso       1.00
      C485          C  0.5708196  0.2456025  0.3979259    0.00000       Uiso       1.00
      C486          C  0.5702474  0.2392813  0.3775505    0.00000       Uiso       1.00
      C487          C  0.5567940  0.2614188  0.3639536    0.00000       Uiso       1.00
      C488          C  0.5428141  0.2890263  0.3713039    0.00000       Uiso       1.00
       O14          O  0.5379540  0.3309210  0.4109646    0.00000       Uiso       1.00
      H280          H  0.5612703  0.2773536  0.4183310    0.00000       Uiso       1.00
      H281          H  0.5801061  0.2295750  0.4095911    0.00000       Uiso       1.00
      H282          H  0.5585632  0.2572528  0.3464098    0.00000       Uiso       1.00
      C489          C  0.4808581  0.3049301  0.2671349    0.00000       Uiso       1.00
      C490          C  0.4850186  0.3110077  0.2843116    0.00000       Uiso       1.00
      C491          C  0.4715326  0.3380585  0.2924505    0.00000       Uiso       1.00
      C492          C  0.4770357  0.3437966  0.3085574    0.00000       Uiso       1.00
      C493          C  0.4974116  0.3228494  0.3154501    0.00000       Uiso       1.00
      C494          C  0.5110090  0.2957996  0.3067650    0.00000       Uiso       1.00
      C495          C  0.5036585  0.2891698  0.2931373    0.00000       Uiso       1.00
       O15          O  0.4639971  0.3239693  0.2561032    0.00000       Uiso       1.00
      H283          H  0.4566297  0.3546530  0.2863565    0.00000       Uiso       1.00
      H284          H  0.4653701  0.3647482  0.3152993    0.00000       Uiso       1.00
      H285          H  0.5285532  0.2800253  0.3091615    0.00000       Uiso       1.00
      C496          C  0.4945627  0.2784097  0.2586774    0.00000       Uiso       1.00
      C497          C  0.5119560  0.2561565  0.2682357    0.00000       Uiso       1.00
      C498          C  0.5254323  0.2290951  0.2601309    0.00000       Uiso       1.00
      C499          C  0.5416529  0.2070329  0.2710314    0.00000       Uiso       1.00
      C500          C  0.5433804  0.2113919  0.2915689    0.00000       Uiso       1.00
      C501          C  0.5293948  0.2387650  0.2996904    0.00000       Uiso       1.00
      C502          C  0.5154473  0.2613909  0.2868531    0.00000       Uiso       1.00
       O16          O  0.4883163  0.2766839  0.2411353    0.00000       Uiso       1.00
      H286          H  0.5233942  0.2252085  0.2452234    0.00000       Uiso       1.00
      H287          H  0.5525523  0.1866327  0.2633952    0.00000       Uiso       1.00
      H288          H  0.5279326  0.2424750  0.3172472    0.00000       Uiso       1.00
      C503          C  0.5229585  0.3433414  0.3804000    0.00000       Uiso       1.00
      C504          C  0.5180978  0.3386436  0.3630070    0.00000       Uiso       1.00
      C505          C  0.5045119  0.3603338  0.3495314    0.00000       Uiso       1.00
      C506          C  0.4986696  0.3552755  0.3333109    0.00000       Uiso       1.00
      C507          C  0.5047564  0.3286516  0.3315828    0.00000       Uiso       1.00
      C508          C  0.5181442  0.3071424  0.3455681    0.00000       Uiso       1.00
      C509          C  0.5268233  0.3113008  0.3595155    0.00000       Uiso       1.00
       O17          O  0.5149866  0.3688554  0.3866464    0.00000       Uiso       1.00
      H289          H  0.4985871  0.3811658  0.3515703    0.00000       Uiso       1.00
      H290          H  0.4891681  0.3724127  0.3224121    0.00000       Uiso       1.00
      H291          H  0.5203921  0.2873380  0.3470302    0.00000       Uiso       1.00
      C510          C  0.6162872  0.1282935  0.3520028    0.00000       Uiso       1.00
      C511          C  0.6067286  0.1552449  0.3568638    0.00000       Uiso       1.00
      C512          C  0.6148336  0.1606165  0.3704490    0.00000       Uiso       1.00
      C513          C  0.6039326  0.1877374  0.3762915    0.00000       Uiso       1.00
      C514          C  0.5833945  0.2100021  0.3702056    0.00000       Uiso       1.00
      C515          C  0.5752726  0.2041378  0.3568183    0.00000       Uiso       1.00
      C516          C  0.5881105  0.1773534  0.3481389    0.00000       Uiso       1.00
       O18          O  0.6338302  0.1045048  0.3599738    0.00000       Uiso       1.00
      H292          H  0.6297416  0.1436717  0.3763734    0.00000       Uiso       1.00
      H293          H  0.6115687  0.1910010  0.3857923    0.00000       Uiso       1.00
      H294          H  0.5577154  0.2202321  0.3545711    0.00000       Uiso       1.00
        B7          B  0.6353257  0.0835811  0.3503138    0.00000       Uiso       1.00
        B8          B  0.5246468  0.3606911  0.4060746    0.00000       Uiso       1.00
        B9          B  0.4688875  0.3057719  0.2396399    0.00000       Uiso       1.00
      C517          C  0.0700662  0.8769857  0.6607718    0.00000       Uiso       1.00
      C518          C  0.0639888  0.8556485  0.6710093    0.00000       Uiso       1.00
      C519          C  0.0369377  0.8609955  0.6845744    0.00000       Uiso       1.00
      C520          C  0.0311995  0.8393860  0.6958150    0.00000       Uiso       1.00
      C521          C  0.0521472  0.8121175  0.6952429    0.00000       Uiso       1.00
      C522          C  0.0791974  0.8072053  0.6817899    0.00000       Uiso       1.00
      C523          C  0.0858271  0.8281832  0.6678103    0.00000       Uiso       1.00
       O19          O  0.0510265  0.9048783  0.6629514    0.00000       Uiso       1.00
      H295          H  0.0203432  0.8819923  0.6862665    0.00000       Uiso       1.00
      H296          H  0.0102477  0.8443097  0.7051012    0.00000       Uiso       1.00
      H297          H  0.0949722  0.7872647  0.6835588    0.00000       Uiso       1.00
      C524          C  0.2519509  0.6779642  0.6058546    0.00000       Uiso       1.00
      C525          C  0.2306137  0.7053787  0.6100154    0.00000       Uiso       1.00
      C526          C  0.2359612  0.7270821  0.5965300    0.00000       Uiso       1.00
      C527          C  0.2143517  0.7544298  0.6020328    0.00000       Uiso       1.00
      C528          C  0.1870829  0.7607511  0.6224082    0.00000       Uiso       1.00
      C529          C  0.1821702  0.7386135  0.6360051    0.00000       Uiso       1.00
      C530          C  0.2031480  0.7110061  0.6286548    0.00000       Uiso       1.00
       O20          O  0.2798437  0.6691114  0.5889940    0.00000       Uiso       1.00
      H298          H  0.2569588  0.7226788  0.5816277    0.00000       Uiso       1.00
      H299          H  0.2192759  0.7704574  0.5903676    0.00000       Uiso       1.00
      H300          H  0.1622295  0.7427796  0.6535488    0.00000       Uiso       1.00
      C531          C  0.0529266  0.6951023  0.7328238    0.00000       Uiso       1.00
      C532          C  0.0803416  0.6890247  0.7156471    0.00000       Uiso       1.00
      C533          C  0.1020454  0.6619739  0.7075081    0.00000       Uiso       1.00
      C534          C  0.1293935  0.6562358  0.6914012    0.00000       Uiso       1.00
      C535          C  0.1357149  0.6771830  0.6845086    0.00000       Uiso       1.00
      C536          C  0.1135772  0.7042328  0.6931937    0.00000       Uiso       1.00
      C537          C  0.0859694  0.7108625  0.7068214    0.00000       Uiso       1.00
       O21          O  0.0440732  0.6760631  0.7438555    0.00000       Uiso       1.00
      H301          H  0.0976429  0.6453794  0.7136022    0.00000       Uiso       1.00
      H302          H  0.1454214  0.6352842  0.6846594    0.00000       Uiso       1.00
      H303          H  0.1177436  0.7200070  0.6907973    0.00000       Uiso       1.00
      C538          C  0.0316534  0.7216227  0.7412813    0.00000       Uiso       1.00
      C539          C  0.0363517  0.7438759  0.7317230    0.00000       Uiso       1.00
      C540          C  0.0146618  0.7709372  0.7398278    0.00000       Uiso       1.00
      C541          C  0.0197206  0.7929994  0.7289273    0.00000       Uiso       1.00
      C542          C  0.0463447  0.7886406  0.7083898    0.00000       Uiso       1.00
      C543          C  0.0678537  0.7612675  0.7002683    0.00000       Uiso       1.00
      C544          C  0.0636949  0.7386414  0.7131056    0.00000       Uiso       1.00
       O22          O  0.0061389  0.7233484  0.7588235    0.00000       Uiso       1.00
      H304          H  0.9938296  0.7748239  0.7547354    0.00000       Uiso       1.00
      H305          H  0.0025836  0.8133997  0.7365635    0.00000       Uiso       1.00
      H306          H  0.0876584  0.7575573  0.6827115    0.00000       Uiso       1.00
      C545          C  0.2467038  0.6566910  0.6195587    0.00000       Uiso       1.00
      C546          C  0.2197523  0.6613888  0.6369516    0.00000       Uiso       1.00
      C547          C  0.2143809  0.6396986  0.6504273    0.00000       Uiso       1.00
      C548          C  0.1872597  0.6447570  0.6666478    0.00000       Uiso       1.00
      C549          C  0.1649945  0.6713808  0.6683759    0.00000       Uiso       1.00
      C550          C  0.1708586  0.6928899  0.6543906    0.00000       Uiso       1.00
      C551          C  0.1976434  0.6887316  0.6404433    0.00000       Uiso       1.00
       O23          O  0.2704924  0.6311770  0.6133123    0.00000       Uiso       1.00
      H307          H  0.2313271  0.6188666  0.6483883    0.00000       Uiso       1.00
      H308          H  0.1839969  0.6276196  0.6775466    0.00000       Uiso       1.00
      H309          H  0.1547639  0.7126944  0.6529285    0.00000       Uiso       1.00
      C552          C  0.0965870  0.8717389  0.6479559    0.00000       Uiso       1.00
      C553          C  0.1188407  0.8447875  0.6430949    0.00000       Uiso       1.00
      C554          C  0.1459027  0.8394158  0.6295097    0.00000       Uiso       1.00
      C555          C  0.1679651  0.8122950  0.6236671    0.00000       Uiso       1.00
      C556          C  0.1636058  0.7900302  0.6297531    0.00000       Uiso       1.00
      C557          C  0.1362324  0.7958945  0.6431404    0.00000       Uiso       1.00
      C558          C  0.1136063  0.8226790  0.6518198    0.00000       Uiso       1.00
       O24          O  0.0983123  0.8955275  0.6399848    0.00000       Uiso       1.00
      H310          H  0.1497902  0.8563607  0.6235853    0.00000       Uiso       1.00
      H311          H  0.1883657  0.8090314  0.6141664    0.00000       Uiso       1.00
      H312          H  0.1325222  0.7798002  0.6453876    0.00000       Uiso       1.00
       B10          B  0.0692239  0.9164513  0.6496450    0.00000       Uiso       1.00
       B11          B  0.2914164  0.6393413  0.5938841    0.00000       Uiso       1.00
       B12          B  0.0143028  0.6942605  0.7603188    0.00000       Uiso       1.00
      C559          C  0.9839206  0.3771287  0.8359535    0.00000       Uiso       1.00
      C560          C  0.9899642  0.3557726  0.8238348    0.00000       Uiso       1.00
      C561          C  0.9817492  0.3610444  0.8049956    0.00000       Uiso       1.00
      C562          C  0.9869508  0.3394181  0.7941460    0.00000       Uiso       1.00
      C563          C  0.9988827  0.3121490  0.8032028    0.00000       Uiso       1.00
      C564          C  0.0067056  0.3072526  0.8224359    0.00000       Uiso       1.00
      C565          C  0.0044620  0.3282723  0.8312520    0.00000       Uiso       1.00
       O25          O  0.9689220  0.4050816  0.8319595    0.00000       Uiso       1.00
      H313          H  0.0130524  0.2873048  0.8318772    0.00000       Uiso       1.00
      C566          C  0.1106598  0.1779823  0.8912665    0.00000       Uiso       1.00
      C567          C  0.0953617  0.2053927  0.8852290    0.00000       Uiso       1.00
      C568          C  0.0924561  0.2270833  0.8935239    0.00000       Uiso       1.00
      C569          C  0.0761737  0.2544220  0.8881965    0.00000       Uiso       1.00
      C570          C  0.0609573  0.2607833  0.8760673    0.00000       Uiso       1.00
      C571          C  0.0637887  0.2386544  0.8682923    0.00000       Uiso       1.00
      C572          C  0.0824212  0.2110221  0.8706683    0.00000       Uiso       1.00
       O26          O  0.1236381  0.1691619  0.9062057    0.00000       Uiso       1.00
      H314          H  0.1030753  0.2226760  0.9039308    0.00000       Uiso       1.00
      H315          H  0.0754978  0.2704068  0.8938633    0.00000       Uiso       1.00
      H316          H  0.0502573  0.2428683  0.8618072    0.00000       Uiso       1.00
      C573          C  0.0382945  0.1951466  0.7644953    0.00000       Uiso       1.00
      C574          C  0.0503996  0.1890686  0.7797940    0.00000       Uiso       1.00
      C575          C  0.0691674  0.1619814  0.7827106    0.00000       Uiso       1.00
      C576          C  0.0802244  0.1562322  0.7989989    0.00000       Uiso       1.00
      C577          C  0.0713868  0.1772147  0.8142045    0.00000       Uiso       1.00
      C578          C  0.0521175  0.2042963  0.8113419    0.00000       Uiso       1.00
      C579          C  0.0431262  0.2109201  0.7927004    0.00000       Uiso       1.00
       O27          O  0.0425721  0.1759789  0.7514828    0.00000       Uiso       1.00
      H317          H  0.0753481  0.1453875  0.7720867    0.00000       Uiso       1.00
      H318          H  0.0955120  0.1352490  0.7996770    0.00000       Uiso       1.00
      H319          H  0.0427862  0.2201324  0.8248412    0.00000       Uiso       1.00
      C580          C  0.0197481  0.2217516  0.7616786    0.00000       Uiso       1.00
      C581          C  0.0130183  0.2440177  0.7731218    0.00000       Uiso       1.00
      C582          C  0.9942067  0.2711424  0.7702899    0.00000       Uiso       1.00
      C583          C  0.9887630  0.2931069  0.7808732    0.00000       Uiso       1.00
      C584          C  0.0033074  0.2886893  0.7929676    0.00000       Uiso       1.00
      C585          C  0.0224405  0.2612957  0.7953152    0.00000       Uiso       1.00
      C586          C  0.0259454  0.2387121  0.7875985    0.00000       Uiso       1.00
       O28          O  0.0099539  0.2233777  0.7459783    0.00000       Uiso       1.00
      H320          H  0.0358788  0.2575676  0.8016692    0.00000       Uiso       1.00
      C587          C  0.1134615  0.1566581  0.8831888    0.00000       Uiso       1.00
      C588          C  0.1020111  0.1613647  0.8676834    0.00000       Uiso       1.00
      C589          C  0.1049129  0.1396559  0.8594235    0.00000       Uiso       1.00
      C590          C  0.0941795  0.1447301  0.8430368    0.00000       Uiso       1.00
      C591          C  0.0818918  0.1713930  0.8330140    0.00000       Uiso       1.00
      C592          C  0.0796070  0.1929029  0.8411655    0.00000       Uiso       1.00
      C593          C  0.0874729  0.1887353  0.8601044    0.00000       Uiso       1.00
       O29          O  0.1290761  0.1311034  0.8913559    0.00000       Uiso       1.00
      H321          H  0.1153216  0.1188070  0.8659656    0.00000       Uiso       1.00
      H322          H  0.0958107  0.1275716  0.8381865    0.00000       Uiso       1.00
      H323          H  0.0731201  0.2127287  0.8315184    0.00000       Uiso       1.00
      C594          C  0.9919908  0.3718131  0.8545109    0.00000       Uiso       1.00
      C595          C  0.0074918  0.3448680  0.8612552    0.00000       Uiso       1.00
      C596          C  0.0157451  0.3395235  0.8800654    0.00000       Uiso       1.00
      C597          C  0.0321339  0.3124109  0.8857359    0.00000       Uiso       1.00
      C598          C  0.0421536  0.2900938  0.8713717    0.00000       Uiso       1.00
      C599          C  0.0339894  0.2959547  0.8521569    0.00000       Uiso       1.00
      C600          C  0.0150532  0.3227604  0.8484534    0.00000       Uiso       1.00
       O30          O  0.9837806  0.3955484  0.8645826    0.00000       Uiso       1.00
      H324          H  0.0091852  0.3564976  0.8904855    0.00000       Uiso       1.00
      H325          H  0.0369760  0.3092178  0.9012595    0.00000       Uiso       1.00
      H326          H  0.0436054  0.2798440  0.8388098    0.00000       Uiso       1.00
       B13          B  0.9690396  0.4165068  0.8501473    0.00000       Uiso       1.00
       B14          B  0.1353341  0.1393369  0.9060432    0.00000       Uiso       1.00
       B15          B  0.0245027  0.1942577  0.7397221    0.00000       Uiso       1.00
      H327          H  0.9714764  0.3818981  0.7984679    0.00000       Uiso       1.00
      H328          H  0.9812369  0.3443996  0.7788749    0.00000       Uiso       1.00
      H329          H  0.9835103  0.2753753  0.7600774    0.00000       Uiso       1.00
      H330          H  0.9732919  0.3135055  0.7791803    0.00000       Uiso       1.00
      C601          C  0.4979936  0.8941479  0.8220465    0.00000       Uiso       1.00
      C602          C  0.5193306  0.8899882  0.7946318    0.00000       Uiso       1.00
      C603          C  0.5139828  0.9034743  0.7729285    0.00000       Uiso       1.00
      C604          C  0.5355921  0.8979721  0.7455808    0.00000       Uiso       1.00
      C605          C  0.5628610  0.8775966  0.7392591    0.00000       Uiso       1.00
      C606          C  0.5677740  0.8639992  0.7613963    0.00000       Uiso       1.00
      C607          C  0.5467964  0.8713489  0.7890039    0.00000       Uiso       1.00
       O31          O  0.4701007  0.9110082  0.8308999    0.00000       Uiso       1.00
      H331          H  0.4929856  0.9183769  0.7773315    0.00000       Uiso       1.00
      H332          H  0.5306678  0.9096379  0.7295533    0.00000       Uiso       1.00
      H333          H  0.5877149  0.8464555  0.7572299    0.00000       Uiso       1.00
      C608          C  0.6970201  0.7671797  0.8049033    0.00000       Uiso       1.00
      C609          C  0.6696050  0.7843562  0.8109813    0.00000       Uiso       1.00
      C610          C  0.6479019  0.7924939  0.8380323    0.00000       Uiso       1.00
      C611          C  0.6205536  0.8086007  0.8437713    0.00000       Uiso       1.00
      C612          C  0.6142315  0.8154944  0.8228244    0.00000       Uiso       1.00
      C613          C  0.6363688  0.8068105  0.7957740    0.00000       Uiso       1.00
      C614          C  0.6639767  0.7931828  0.7891438    0.00000       Uiso       1.00
       O32          O  0.7058737  0.7561473  0.8239423    0.00000       Uiso       1.00
      H334          H  0.6523059  0.7863984  0.8546259    0.00000       Uiso       1.00
      H335          H  0.6045263  0.8153415  0.8647232    0.00000       Uiso       1.00
      H336          H  0.6322020  0.8092077  0.7799999    0.00000       Uiso       1.00
      C615          C  0.6798757  0.8392370  0.6230226    0.00000       Uiso       1.00
      C616          C  0.6859543  0.8289984  0.6443591    0.00000       Uiso       1.00
      C617          C  0.7130057  0.8154334  0.6390114    0.00000       Uiso       1.00
      C618          C  0.7187446  0.8041920  0.6606205    0.00000       Uiso       1.00
      C619          C  0.6977975  0.8047632  0.6878891    0.00000       Uiso       1.00
      C620          C  0.6707471  0.8182158  0.6928020    0.00000       Uiso       1.00
      C621          C  0.6641166  0.8321962  0.6718247    0.00000       Uiso       1.00
       O33          O  0.6989146  0.8370590  0.5951300    0.00000       Uiso       1.00
      H337          H  0.7295999  0.8137420  0.6180145    0.00000       Uiso       1.00
      H338          H  0.7396966  0.7949058  0.6556964    0.00000       Uiso       1.00
      H339          H  0.6549731  0.8164458  0.7127424    0.00000       Uiso       1.00
      C622          C  0.6533547  0.8520529  0.6282704    0.00000       Uiso       1.00
      C623          C  0.6311018  0.8569126  0.6552219    0.00000       Uiso       1.00
      C624          C  0.6040398  0.8704979  0.6605941    0.00000       Uiso       1.00
      C625          C  0.5819778  0.8763395  0.6877152    0.00000       Uiso       1.00
      C626          C  0.5863377  0.8702524  0.7099797    0.00000       Uiso       1.00
      C627          C  0.6137114  0.8568649  0.7041149    0.00000       Uiso       1.00
      C628          C  0.6363370  0.8481866  0.6773300    0.00000       Uiso       1.00
       O34          O  0.6516282  0.8600254  0.6044824    0.00000       Uiso       1.00
      H340          H  0.6001525  0.8764229  0.6436489    0.00000       Uiso       1.00
      H341          H  0.5615771  0.8858403  0.6909789    0.00000       Uiso       1.00
      H342          H  0.6174222  0.8546166  0.7202089    0.00000       Uiso       1.00
      C629          C  0.7182930  0.7587230  0.7783828    0.00000       Uiso       1.00
      C630          C  0.7135943  0.7682819  0.7561298    0.00000       Uiso       1.00
      C631          C  0.7352841  0.7601778  0.7290682    0.00000       Uiso       1.00
      C632          C  0.7302250  0.7710788  0.7070062    0.00000       Uiso       1.00
      C633          C  0.7036006  0.7916160  0.7113656    0.00000       Uiso       1.00
      C634          C  0.6820918  0.7997370  0.7387389    0.00000       Uiso       1.00
      C635          C  0.6862510  0.7868991  0.7613646    0.00000       Uiso       1.00
       O35          O  0.7438076  0.7411808  0.7766566    0.00000       Uiso       1.00
      H343          H  0.7561166  0.7452706  0.7251818    0.00000       Uiso       1.00
      H344          H  0.7473621  0.7634431  0.6866059    0.00000       Uiso       1.00
      H345          H  0.6622871  0.8172936  0.7424494    0.00000       Uiso       1.00
      C636          C  0.5032414  0.8804430  0.8433195    0.00000       Uiso       1.00
      C637          C  0.5301932  0.8630502  0.8386210    0.00000       Uiso       1.00
      C638          C  0.5355656  0.8495733  0.8603106    0.00000       Uiso       1.00
      C639          C  0.5626871  0.8333533  0.8552513    0.00000       Uiso       1.00
      C640          C  0.5849516  0.8316268  0.8286274    0.00000       Uiso       1.00
      C641          C  0.5790866  0.8456131  0.8071190    0.00000       Uiso       1.00
      C642          C  0.5523015  0.8595599  0.8112781    0.00000       Uiso       1.00
       O36          O  0.4794527  0.8866886  0.8688335    0.00000       Uiso       1.00
      H346          H  0.5186210  0.8516100  0.8811429    0.00000       Uiso       1.00
      H347          H  0.5659513  0.8224533  0.8723877    0.00000       Uiso       1.00
      H348          H  0.5951809  0.8470761  0.7873146    0.00000       Uiso       1.00
       B16          B  0.4585283  0.9061170  0.8606699    0.00000       Uiso       1.00
       B17          B  0.7356440  0.7396845  0.8057445    0.00000       Uiso       1.00
       B18          B  0.6807163  0.8503663  0.5835580    0.00000       Uiso       1.00
      C643          C  0.9978860  0.8050956  0.2360237    0.00000       Uiso       1.00
      C644          C  0.0192424  0.8111706  0.2207110    0.00000       Uiso       1.00
      C645          C  0.0139707  0.8382244  0.2177685    0.00000       Uiso       1.00
      C646          C  0.0355974  0.8438721  0.2013438    0.00000       Uiso       1.00
      C647          C  0.0628666  0.8228837  0.1860059    0.00000       Uiso       1.00
      C648          C  0.0677628  0.7958278  0.1889320    0.00000       Uiso       1.00
      C649          C  0.0467429  0.7892554  0.2077079    0.00000       Uiso       1.00
       O37          O  0.9699329  0.8240880  0.2489786    0.00000       Uiso       1.00
      H349          H  0.0877105  0.7800400  0.1753305    0.00000       Uiso       1.00
      C650          C  0.1970340  0.6230444  0.1636103    0.00000       Uiso       1.00
      C651          C  0.1696234  0.6443800  0.1757233    0.00000       Uiso       1.00
      C652          C  0.1479326  0.6389908  0.1945083    0.00000       Uiso       1.00
      C653          C  0.1205936  0.6606004  0.2055654    0.00000       Uiso       1.00
      C654          C  0.1142323  0.6879457  0.1967111    0.00000       Uiso       1.00
      C655          C  0.1363613  0.6928893  0.1774136    0.00000       Uiso       1.00
      C656          C  0.1639941  0.6718808  0.1684130    0.00000       Uiso       1.00
       O38          O  0.2058544  0.5951272  0.1677674    0.00000       Uiso       1.00
      H350          H  0.1523399  0.6179649  0.2007195    0.00000       Uiso       1.00
      H351          H  0.1046086  0.6556097  0.2208742    0.00000       Uiso       1.00
      H352          H  0.1321473  0.7129057  0.1680968    0.00000       Uiso       1.00
      C657          C  0.1798706  0.8221785  0.1084146    0.00000       Uiso       1.00
      C658          C  0.1859486  0.7947751  0.1144409    0.00000       Uiso       1.00
      C659          C  0.2130362  0.7730908  0.1061206    0.00000       Uiso       1.00
      C660          C  0.2187853  0.7457457  0.1114277    0.00000       Uiso       1.00
      C661          C  0.1978024  0.7393780  0.1235727    0.00000       Uiso       1.00
      C662          C  0.1707203  0.7615099  0.1313858    0.00000       Uiso       1.00
      C663          C  0.1640967  0.7891423  0.1290191    0.00000       Uiso       1.00
       O39          O  0.1990388  0.8309131  0.0935245    0.00000       Uiso       1.00
      H353          H  0.2296305  0.7775337  0.0957074    0.00000       Uiso       1.00
      H354          H  0.2397688  0.7297801  0.1057314    0.00000       Uiso       1.00
      H355          H  0.1548838  0.7573420  0.1378908    0.00000       Uiso       1.00
      C664          C  0.1532653  0.8435416  0.1164740    0.00000       Uiso       1.00
      C665          C  0.1309988  0.8388284  0.1320103    0.00000       Uiso       1.00
      C666          C  0.1038738  0.8604718  0.1403241    0.00000       Uiso       1.00
      C667          C  0.0819090  0.8553324  0.1568450    0.00000       Uiso       1.00
      C668          C  0.0863266  0.8286937  0.1669712    0.00000       Uiso       1.00
      C669          C  0.1137206  0.8072131  0.1587097    0.00000       Uiso       1.00
      C670          C  0.1363044  0.8114250  0.1396310    0.00000       Uiso       1.00
       O40          O  0.1516392  0.8690357  0.1083067    0.00000       Uiso       1.00
      H356          H  0.1174489  0.7874210  0.1684193    0.00000       Uiso       1.00
      C671          C  0.2183584  0.6283203  0.1450878    0.00000       Uiso       1.00
      C672          C  0.2136519  0.6552758  0.1383448    0.00000       Uiso       1.00
      C673          C  0.2353610  0.6606337  0.1195378    0.00000       Uiso       1.00
      C674          C  0.2302869  0.6877536  0.1138792    0.00000       Uiso       1.00
      C675          C  0.2036239  0.7100638  0.1282552    0.00000       Uiso       1.00
      C676          C  0.1821138  0.7041974  0.1474802    0.00000       Uiso       1.00
      C677          C  0.1862811  0.6773929  0.1511779    0.00000       Uiso       1.00
       O41          O  0.2439134  0.6045388  0.1351469    0.00000       Uiso       1.00
      H357          H  0.2562100  0.6436831  0.1090970    0.00000       Uiso       1.00
      H358          H  0.2474456  0.6909726  0.0983520    0.00000       Uiso       1.00
      H359          H  0.1622880  0.7203312  0.1608196    0.00000       Uiso       1.00
      C678          C  0.0032013  0.7784684  0.2387775    0.00000       Uiso       1.00
      C679          C  0.0301466  0.7562230  0.2273328    0.00000       Uiso       1.00
      C680          C  0.0354910  0.7291599  0.2302409    0.00000       Uiso       1.00
      C681          C  0.0626039  0.7071007  0.2195162    0.00000       Uiso       1.00
      C682          C  0.0849214  0.7114449  0.2072188    0.00000       Uiso       1.00
      C683          C  0.0790607  0.7388237  0.2049161    0.00000       Uiso       1.00
      C684          C  0.0522546  0.7614632  0.2127865    0.00000       Uiso       1.00
       O42          O  0.9794657  0.7766070  0.2543028    0.00000       Uiso       1.00
      H360          H  0.0185165  0.7253000  0.2406552    0.00000       Uiso       1.00
      H361          H  0.0657967  0.6867353  0.2211649    0.00000       Uiso       1.00
      H362          H  0.0951719  0.7425546  0.1984212    0.00000       Uiso       1.00
       B19          B  0.9585073  0.8057830  0.2605211    0.00000       Uiso       1.00
       B20          B  0.2356797  0.5835938  0.1496379    0.00000       Uiso       1.00
       B21          B  0.1807597  0.8607430  0.0937349    0.00000       Uiso       1.00
      H363          H  0.9931170  0.8550246  0.2283501    0.00000       Uiso       1.00
      H364          H  0.0306160  0.8648568  0.2006120    0.00000       Uiso       1.00
      H365          H  0.0996407  0.8813807  0.1338613    0.00000       Uiso       1.00
      H366          H  0.0615101  0.8724964  0.1617731    0.00000       Uiso       1.00
      C685          C  0.2141939  0.1058844  0.1779123    0.00000       Uiso       1.00
      C686          C  0.2039563  0.1100442  0.2053269    0.00000       Uiso       1.00
      C687          C  0.1903915  0.0965580  0.2270301    0.00000       Uiso       1.00
      C688          C  0.1791507  0.1020602  0.2543779    0.00000       Uiso       1.00
      C689          C  0.1797223  0.1224357  0.2606996    0.00000       Uiso       1.00
      C690          C  0.1931751  0.1360332  0.2385624    0.00000       Uiso       1.00
      C691          C  0.2071549  0.1286835  0.2109548    0.00000       Uiso       1.00
       O43          O  0.2120146  0.0890242  0.1690588    0.00000       Uiso       1.00
      H367          H  0.1886997  0.0816555  0.2226273    0.00000       Uiso       1.00
      H368          H  0.1698647  0.0903944  0.2704054    0.00000       Uiso       1.00
      H369          H  0.1914058  0.1535768  0.2427289    0.00000       Uiso       1.00
      C692          C  0.2691085  0.2328527  0.1950554    0.00000       Uiso       1.00
      C693          C  0.2649481  0.2156762  0.1889774    0.00000       Uiso       1.00
      C694          C  0.2784337  0.2075385  0.1619264    0.00000       Uiso       1.00
      C695          C  0.2729312  0.1914317  0.1561874    0.00000       Uiso       1.00
      C696          C  0.2525559  0.1845379  0.1771343    0.00000       Uiso       1.00
      C697          C  0.2389588  0.1932219  0.2041846    0.00000       Uiso       1.00
      C698          C  0.2463088  0.2068496  0.2108149    0.00000       Uiso       1.00
       O44          O  0.2859689  0.2438851  0.1760164    0.00000       Uiso       1.00
      H370          H  0.2933359  0.2136340  0.1453328    0.00000       Uiso       1.00
      H371          H  0.2845966  0.1846910  0.1352355    0.00000       Uiso       1.00
      H372          H  0.2214151  0.1908247  0.2199588    0.00000       Uiso       1.00
      C699          C  0.1421406  0.1607954  0.3769361    0.00000       Uiso       1.00
      C700          C  0.1593171  0.1710340  0.3555996    0.00000       Uiso       1.00
      C701          C  0.1674557  0.1845990  0.3609473    0.00000       Uiso       1.00
      C702          C  0.1835624  0.1958404  0.3393382    0.00000       Uiso       1.00
      C703          C  0.1904551  0.1952692  0.3120697    0.00000       Uiso       1.00
      C704          C  0.1817703  0.1818166  0.3071567    0.00000       Uiso       1.00
      C705          C  0.1681429  0.1678362  0.3281340    0.00000       Uiso       1.00
       O45          O  0.1311087  0.1629734  0.4048288    0.00000       Uiso       1.00
      H373          H  0.1613616  0.1862904  0.3819442    0.00000       Uiso       1.00
      H374          H  0.1903041  0.2051265  0.3442623    0.00000       Uiso       1.00
      H375          H  0.1841667  0.1835866  0.2872162    0.00000       Uiso       1.00
      C706          C  0.1336833  0.1479795  0.3716883    0.00000       Uiso       1.00
      C707          C  0.1432417  0.1431198  0.3447368    0.00000       Uiso       1.00
      C708          C  0.1351372  0.1295345  0.3393646    0.00000       Uiso       1.00
      C709          C  0.1460379  0.1236929  0.3122435    0.00000       Uiso       1.00
      C710          C  0.1665753  0.1297799  0.2899790    0.00000       Uiso       1.00
      C711          C  0.1746965  0.1431675  0.2958439    0.00000       Uiso       1.00
      C712          C  0.1618590  0.1518458  0.3226287    0.00000       Uiso       1.00
       O46          O  0.1161413  0.1400069  0.3954763    0.00000       Uiso       1.00
      H376          H  0.1202298  0.1236094  0.3563098    0.00000       Uiso       1.00
      H377          H  0.1384019  0.1141920  0.3089798    0.00000       Uiso       1.00
      H378          H  0.1922532  0.1454158  0.2797497    0.00000       Uiso       1.00
      C713          C  0.2554043  0.2413094  0.2215759    0.00000       Uiso       1.00
      C714          C  0.2380114  0.2317505  0.2438289    0.00000       Uiso       1.00
      C715          C  0.2245355  0.2398546  0.2708905    0.00000       Uiso       1.00
      C716          C  0.2083153  0.2289536  0.2929525    0.00000       Uiso       1.00
      C717          C  0.2065876  0.2084164  0.2885931    0.00000       Uiso       1.00
      C718          C  0.2205731  0.2002954  0.2612198    0.00000       Uiso       1.00
      C719          C  0.2345202  0.2131332  0.2385941    0.00000       Uiso       1.00
       O47          O  0.2616502  0.2588516  0.2233021    0.00000       Uiso       1.00
      H379          H  0.2265742  0.2547618  0.2747769    0.00000       Uiso       1.00
      H380          H  0.1974163  0.2365893  0.3133529    0.00000       Uiso       1.00
      H381          H  0.2220355  0.1827388  0.2575093    0.00000       Uiso       1.00
      C720          C  0.2270095  0.1195894  0.1566392    0.00000       Uiso       1.00
      C721          C  0.2318702  0.1369822  0.1613376    0.00000       Uiso       1.00
      C722          C  0.2454552  0.1504591  0.1396482    0.00000       Uiso       1.00
      C723          C  0.2512974  0.1666791  0.1447075    0.00000       Uiso       1.00
      C724          C  0.2452114  0.1684057  0.1713314    0.00000       Uiso       1.00
      C725          C  0.2318243  0.1544193  0.1928397    0.00000       Uiso       1.00
      C726          C  0.2231452  0.1404725  0.1886806    0.00000       Uiso       1.00
       O48          O  0.2349807  0.1133438  0.1311252    0.00000       Uiso       1.00
      H382          H  0.2513796  0.1484224  0.1188159    0.00000       Uiso       1.00
      H383          H  0.2607979  0.1775791  0.1275710    0.00000       Uiso       1.00
      H384          H  0.2295771  0.1529563  0.2126441    0.00000       Uiso       1.00
       B22          B  0.2253210  0.0939154  0.1392888    0.00000       Uiso       1.00
       B23          B  0.2810784  0.2603478  0.1942142    0.00000       Uiso       1.00
       B24          B  0.1146457  0.1496661  0.4164008    0.00000       Uiso       1.00
