data_39
_audit_creation_date              0000-00-00
_audit_creation_method            'LanYouShi'
_symmetry_space_group_name_H-M    'P1'
_cell_length_a                    51.8977013
_cell_length_b                    51.8977013
_cell_length_c                    51.8977013
_cell_angle_alpha                 119.9999008
_cell_angle_beta                  119.9999008
_cell_angle_gamma                 60.0000000
loop_
_atom_site_label
_atom_site_type_symbol
_atom_site_fract_x
_atom_site_fract_y
_atom_site_fract_z
_atom_site_U_iso_or_equiv
_atom_site_adp_type
_atom_site_occupancy
        C1          C  0.4168051  0.4168053  0.2965287    0.00000       Uiso       1.00
        C2          C  0.4006262  0.4470542  0.3129166    0.00000       Uiso       1.00
        C3          C  0.4144408  0.4609075  0.3452513    0.00000       Uiso       1.00
        C4          C  0.4470541  0.4006263  0.3129166    0.00000       Uiso       1.00
        C5          C  0.4609073  0.4144409  0.3452513    0.00000       Uiso       1.00
        C6          C  0.4454675  0.4454676  0.3621384    0.00000       Uiso       1.00
        H1          H  0.4732085  0.6428314  0.5163944    0.00000       Uiso       1.00
        H2          H  0.6428312  0.4732087  0.5163944    0.00000       Uiso       1.00
        H3          H  0.4606187  0.3759673  0.2999054    0.00000       Uiso       1.00
        H4          H  0.3759671  0.4606189  0.2999054    0.00000       Uiso       1.00
        C7          C  0.4629191  0.7034724  0.5831959    0.00000       Uiso       1.00
        C8          C  0.4652370  0.6870845  0.5529469    0.00000       Uiso       1.00
        C9          C  0.4699038  0.6547498  0.5390937    0.00000       Uiso       1.00
       C10          C  0.4652370  0.6870844  0.5993748    0.00000       Uiso       1.00
       C11          C  0.4699037  0.6547498  0.5855601    0.00000       Uiso       1.00
       C12          C  0.4712040  0.6378627  0.5545335    0.00000       Uiso       1.00
        H5          H  0.4003552  0.4836068  0.3571698    0.00000       Uiso       1.00
        H6          H  0.4003550  0.4836065  0.5267922    0.00000       Uiso       1.00
        H7          H  0.4633200  0.7000957  0.6240338    0.00000       Uiso       1.00
        H8          H  0.4633201  0.7000958  0.5393823    0.00000       Uiso       1.00
       C13          C  0.7034723  0.4629192  0.5831959    0.00000       Uiso       1.00
       C14          C  0.6870843  0.4652371  0.5993748    0.00000       Uiso       1.00
       C15          C  0.6547496  0.4699039  0.5855601    0.00000       Uiso       1.00
       C16          C  0.6870844  0.4652372  0.5529469    0.00000       Uiso       1.00
       C17          C  0.6547496  0.4699040  0.5390937    0.00000       Uiso       1.00
       C18          C  0.6378626  0.4712041  0.5545335    0.00000       Uiso       1.00
        H9          H  0.4836064  0.4003551  0.5267922    0.00000       Uiso       1.00
       H10          H  0.4836066  0.4003553  0.3571698    0.00000       Uiso       1.00
       H11          H  0.7000957  0.4633203  0.5393823    0.00000       Uiso       1.00
       H12          H  0.7000955  0.4633202  0.6240338    0.00000       Uiso       1.00
       C19          C  0.4168048  0.4168049  0.5370815    0.00000       Uiso       1.00
       C20          C  0.4470537  0.4006260  0.5347636    0.00000       Uiso       1.00
       C21          C  0.4609070  0.4144406  0.5300969    0.00000       Uiso       1.00
       C22          C  0.4006258  0.4470539  0.5347636    0.00000       Uiso       1.00
       C23          C  0.4144405  0.4609072  0.5300969    0.00000       Uiso       1.00
       C24          C  0.4454672  0.4454674  0.5287967    0.00000       Uiso       1.00
       H13          H  0.6428311  0.4732085  0.5996457    0.00000       Uiso       1.00
       H14          H  0.4732084  0.6428313  0.5996457    0.00000       Uiso       1.00
       C25          C  0.5000002  0.5000007  0.5000005    0.00000       Uiso       1.00
       H15          H  0.3759668  0.4606185  0.5366805    0.00000       Uiso       1.00
       H16          H  0.4606183  0.3759669  0.5366805    0.00000       Uiso       1.00
       C26          C  0.4600666  0.4596778  0.3968669    0.00000       Uiso       1.00
       C27          C  0.4535704  0.4924558  0.4113064    0.00000       Uiso       1.00
       C28          C  0.4665782  0.5057997  0.4440122    0.00000       Uiso       1.00
       C29          C  0.4802845  0.4405577  0.4160230    0.00000       Uiso       1.00
       C30          C  0.4938139  0.4537475  0.4484929    0.00000       Uiso       1.00
       C31          C  0.4874171  0.4866405  0.4633462    0.00000       Uiso       1.00
       H17          H  0.5154513  0.5375158  0.4912014    0.00000       Uiso       1.00
       H18          H  0.5461965  0.4632359  0.4687839    0.00000       Uiso       1.00
       H19          H  0.4850256  0.4153441  0.4062200    0.00000       Uiso       1.00
       H20          H  0.4381883  0.5079294  0.3973169    0.00000       Uiso       1.00
       C32          C  0.4771242  0.6031343  0.5399359    0.00000       Uiso       1.00
       C33          C  0.4951889  0.5839781  0.5197248    0.00000       Uiso       1.00
       C34          C  0.5009369  0.5515083  0.5061912    0.00000       Uiso       1.00
       C35          C  0.4652763  0.5886959  0.5464268    0.00000       Uiso       1.00
       C36          C  0.4716319  0.5559897  0.5334194    0.00000       Uiso       1.00
       C37          C  0.4892898  0.5366551  0.5125839    0.00000       Uiso       1.00
       H21          H  0.4593506  0.5312173  0.4538051    0.00000       Uiso       1.00
       H22          H  0.4382357  0.5088021  0.4845526    0.00000       Uiso       1.00
       H23          H  0.4511873  0.6026859  0.5618013    0.00000       Uiso       1.00
       H24          H  0.5058620  0.5937842  0.5149920    0.00000       Uiso       1.00
       C38          C  0.6031339  0.4771245  0.5403224    0.00000       Uiso       1.00
       C39          C  0.5839777  0.4951846  0.5594423    0.00000       Uiso       1.00
       C40          C  0.5515077  0.5009339  0.5462536    0.00000       Uiso       1.00
       C41          C  0.5886943  0.4652819  0.5075442    0.00000       Uiso       1.00
       C42          C  0.5559887  0.4716364  0.4942015    0.00000       Uiso       1.00
       C43          C  0.5366544  0.4892901  0.5133606    0.00000       Uiso       1.00
       H25          H  0.5312170  0.4593508  0.5367644    0.00000       Uiso       1.00
       H26          H  0.5088034  0.4382362  0.4624862    0.00000       Uiso       1.00
       H27          H  0.6026819  0.4511976  0.4920684    0.00000       Uiso       1.00
       H28          H  0.5937839  0.5058517  0.5846556    0.00000       Uiso       1.00
       C44          C  0.4596785  0.4600648  0.5228770    0.00000       Uiso       1.00
       C45          C  0.4924565  0.4535698  0.5347205    0.00000       Uiso       1.00
       C46          C  0.5057994  0.4665777  0.5283655    0.00000       Uiso       1.00
       C47          C  0.4405589  0.4802794  0.5048157    0.00000       Uiso       1.00
       C48          C  0.4537473  0.4938117  0.4990665    0.00000       Uiso       1.00
       C49          C  0.4866401  0.4874167  0.5107113    0.00000       Uiso       1.00
       H29          H  0.5375146  0.5154454  0.5617647    0.00000       Uiso       1.00
       H30          H  0.4632294  0.5461968  0.5406415    0.00000       Uiso       1.00
       H31          H  0.4153461  0.4850166  0.4941459    0.00000       Uiso       1.00
       H32          H  0.5079316  0.4381911  0.5488048    0.00000       Uiso       1.00
       C50          C  0.8491889  0.4168043  0.9694657    0.00000       Uiso       1.00
       C51          C  0.8515068  0.4470532  0.9856446    0.00000       Uiso       1.00
       C52          C  0.8561736  0.4609065  0.9718301    0.00000       Uiso       1.00
       C53          C  0.8515069  0.4006253  0.9392168    0.00000       Uiso       1.00
       C54          C  0.8561737  0.4144400  0.9253635    0.00000       Uiso       1.00
       C55          C  0.8574739  0.4454667  0.9408033    0.00000       Uiso       1.00
       H33          H  0.7866248  0.6428308  0.9130621    0.00000       Uiso       1.00
       H34          H  0.7866251  0.4732083  0.7434397    0.00000       Uiso       1.00
       H35          H  0.8495901  0.3759663  0.9256522    0.00000       Uiso       1.00
       H36          H  0.8495893  0.4606172  0.0103028    0.00000       Uiso       1.00
       C56          C  0.8030747  0.7034719  0.9233515    0.00000       Uiso       1.00
       C57          C  0.7868957  0.6870840  0.9210336    0.00000       Uiso       1.00
       C58          C  0.8007103  0.6547493  0.9163668    0.00000       Uiso       1.00
       C59          C  0.8333236  0.6870840  0.9210336    0.00000       Uiso       1.00
       C60          C  0.8471770  0.6547493  0.9163668    0.00000       Uiso       1.00
       C61          C  0.8317371  0.6378621  0.9150666    0.00000       Uiso       1.00
       H37          H  0.8594783  0.4836058  0.9859155    0.00000       Uiso       1.00
       H38          H  0.0291007  0.4836058  0.9859155    0.00000       Uiso       1.00
       H39          H  0.8468882  0.7000952  0.9229504    0.00000       Uiso       1.00
       H40          H  0.7622367  0.7000952  0.9229504    0.00000       Uiso       1.00
       C62          C  0.8030750  0.4629191  0.6827986    0.00000       Uiso       1.00
       C63          C  0.8333240  0.4652369  0.6991865    0.00000       Uiso       1.00
       C64          C  0.8471772  0.4699037  0.7315212    0.00000       Uiso       1.00
       C65          C  0.7868960  0.4652369  0.6991865    0.00000       Uiso       1.00
       C66          C  0.8007106  0.4699037  0.7315212    0.00000       Uiso       1.00
       C67          C  0.8317373  0.4712038  0.7484083    0.00000       Uiso       1.00
       H41          H  0.0291008  0.4003545  0.9026643    0.00000       Uiso       1.00
       H42          H  0.8594784  0.4003545  0.9026643    0.00000       Uiso       1.00
       H43          H  0.7622370  0.4633201  0.6861752    0.00000       Uiso       1.00
       H44          H  0.8468886  0.4633201  0.6861752    0.00000       Uiso       1.00
       C68          C  0.0897418  0.4168043  0.9694657    0.00000       Uiso       1.00
       C69          C  0.0733539  0.4006253  0.9392168    0.00000       Uiso       1.00
       C70          C  0.0410192  0.4144400  0.9253635    0.00000       Uiso       1.00
       C71          C  0.0733538  0.4470532  0.9856446    0.00000       Uiso       1.00
       C72          C  0.0410192  0.4609065  0.9718301    0.00000       Uiso       1.00
       C73          C  0.0241321  0.4454667  0.9408033    0.00000       Uiso       1.00
       H45          H  0.8698765  0.4732083  0.7434397    0.00000       Uiso       1.00
       H46          H  0.8698763  0.6428308  0.9130621    0.00000       Uiso       1.00
       C74          C  0.8862701  0.5000001  0.8862705    0.00000       Uiso       1.00
       H47          H  0.0863645  0.4606172  0.0103028    0.00000       Uiso       1.00
       H48          H  0.0863652  0.3759663  0.9256522    0.00000       Uiso       1.00
       C75          C  0.8633930  0.4596770  0.9262042    0.00000       Uiso       1.00
       C76          C  0.8515506  0.4924551  0.9327005    0.00000       Uiso       1.00
       C77          C  0.8579049  0.5057989  0.9196925    0.00000       Uiso       1.00
       C78          C  0.8814513  0.4405569  0.9059864    0.00000       Uiso       1.00
       C79          C  0.8872020  0.4537468  0.8924568    0.00000       Uiso       1.00
       C80          C  0.8755590  0.4866399  0.8988536    0.00000       Uiso       1.00
       H49          H  0.8245049  0.5375152  0.8708194    0.00000       Uiso       1.00
       H50          H  0.8456220  0.4632354  0.8400743    0.00000       Uiso       1.00
       H51          H  0.8921208  0.4153434  0.9012452    0.00000       Uiso       1.00
       H52          H  0.8374698  0.5079286  0.9480825    0.00000       Uiso       1.00
       C81          C  0.8459478  0.6031338  0.9091464    0.00000       Uiso       1.00
       C82          C  0.8268282  0.5839776  0.8910818    0.00000       Uiso       1.00
       C83          C  0.8400164  0.5515077  0.8853338    0.00000       Uiso       1.00
       C84          C  0.8787249  0.5886953  0.9209943    0.00000       Uiso       1.00
       C85          C  0.8920681  0.5559891  0.9146387    0.00000       Uiso       1.00
       C86          C  0.8729093  0.5366545  0.8969808    0.00000       Uiso       1.00
       H53          H  0.8495077  0.5312166  0.9269201    0.00000       Uiso       1.00
       H54          H  0.9237852  0.5088015  0.9480350    0.00000       Uiso       1.00
       H55          H  0.8941983  0.6026854  0.9350833    0.00000       Uiso       1.00
       H56          H  0.8016163  0.5937837  0.8804087    0.00000       Uiso       1.00
       C87          C  0.8463345  0.4771241  0.7831369    0.00000       Uiso       1.00
       C88          C  0.8665503  0.4951842  0.8022930    0.00000       Uiso       1.00
       C89          C  0.8800824  0.5009335  0.8347630    0.00000       Uiso       1.00
       C90          C  0.8398384  0.4652815  0.7975764    0.00000       Uiso       1.00
       C91          C  0.8528469  0.4716359  0.8302821    0.00000       Uiso       1.00
       C92          C  0.8736864  0.4892897  0.8496163    0.00000       Uiso       1.00
       H57          H  0.9324670  0.4593503  0.8550536    0.00000       Uiso       1.00
       H58          H  0.9017171  0.4382356  0.8774674    0.00000       Uiso       1.00
       H59          H  0.8244595  0.4511971  0.7835889    0.00000       Uiso       1.00
       H60          H  0.8712904  0.5058514  0.7924868    0.00000       Uiso       1.00
       C93          C  0.9894039  0.4600642  0.9265921    0.00000       Uiso       1.00
       C94          C  0.9749646  0.4535693  0.8938141    0.00000       Uiso       1.00
       C95          C  0.9422588  0.4665772  0.8804713    0.00000       Uiso       1.00
       C96          C  0.9702477  0.4802787  0.9457117    0.00000       Uiso       1.00
       C97          C  0.9377779  0.4938110  0.9325233    0.00000       Uiso       1.00
       C98          C  0.9229249  0.4874161  0.8996306    0.00000       Uiso       1.00
       H61          H  0.8950751  0.5154449  0.8487561    0.00000       Uiso       1.00
       H62          H  0.9174857  0.5461962  0.9230412    0.00000       Uiso       1.00
       H63          H  0.9800536  0.4850158  0.9709245    0.00000       Uiso       1.00
       H64          H  0.9889525  0.4381905  0.8783390    0.00000       Uiso       1.00
       C99          C  0.0897424  0.4168049  0.5370815    0.00000       Uiso       1.00
      C100          C  0.0733545  0.4470539  0.5347636    0.00000       Uiso       1.00
      C101          C  0.0410198  0.4609072  0.5300969    0.00000       Uiso       1.00
      C102          C  0.0733545  0.4006260  0.5347636    0.00000       Uiso       1.00
      C103          C  0.0410198  0.4144406  0.5300969    0.00000       Uiso       1.00
      C104          C  0.0241327  0.4454674  0.5287967    0.00000       Uiso       1.00
       H65          H  0.8698767  0.6428313  0.5996457    0.00000       Uiso       1.00
       H66          H  0.8698767  0.4732085  0.5996457    0.00000       Uiso       1.00
       H67          H  0.0863658  0.3759669  0.5366805    0.00000       Uiso       1.00
       H68          H  0.0863658  0.4606185  0.5366805    0.00000       Uiso       1.00
      C105          C  0.8030751  0.7034724  0.5831959    0.00000       Uiso       1.00
      C106          C  0.8333241  0.6870844  0.5993748    0.00000       Uiso       1.00
      C107          C  0.8471774  0.6547498  0.5855601    0.00000       Uiso       1.00
      C108          C  0.7868963  0.6870845  0.5529469    0.00000       Uiso       1.00
      C109          C  0.8007109  0.6547498  0.5390937    0.00000       Uiso       1.00
      C110          C  0.8317376  0.6378627  0.5545335    0.00000       Uiso       1.00
       H69          H  0.0291014  0.4836065  0.5267922    0.00000       Uiso       1.00
       H70          H  0.8594792  0.4836068  0.3571698    0.00000       Uiso       1.00
       H71          H  0.7622373  0.7000958  0.5393823    0.00000       Uiso       1.00
       H72          H  0.8468887  0.7000957  0.6240338    0.00000       Uiso       1.00
      C111          C  0.8030751  0.4629192  0.5831959    0.00000       Uiso       1.00
      C112          C  0.7868963  0.4652372  0.5529469    0.00000       Uiso       1.00
      C113          C  0.8007109  0.4699040  0.5390937    0.00000       Uiso       1.00
      C114          C  0.8333241  0.4652371  0.5993748    0.00000       Uiso       1.00
      C115          C  0.8471774  0.4699039  0.5855601    0.00000       Uiso       1.00
      C116          C  0.8317376  0.4712041  0.5545335    0.00000       Uiso       1.00
       H73          H  0.8594792  0.4003553  0.3571698    0.00000       Uiso       1.00
       H74          H  0.0291014  0.4003551  0.5267922    0.00000       Uiso       1.00
       H75          H  0.8468887  0.4633202  0.6240338    0.00000       Uiso       1.00
       H76          H  0.7622372  0.4633203  0.5393823    0.00000       Uiso       1.00
      C117          C  0.8491899  0.4168053  0.2965287    0.00000       Uiso       1.00
      C118          C  0.8515078  0.4006263  0.3129166    0.00000       Uiso       1.00
      C119          C  0.8561746  0.4144409  0.3452513    0.00000       Uiso       1.00
      C120          C  0.8515078  0.4470542  0.3129166    0.00000       Uiso       1.00
      C121          C  0.8561745  0.4609075  0.3452513    0.00000       Uiso       1.00
      C122          C  0.8574747  0.4454676  0.3621384    0.00000       Uiso       1.00
       H77          H  0.7866254  0.4732087  0.5163944    0.00000       Uiso       1.00
       H78          H  0.7866254  0.6428314  0.5163944    0.00000       Uiso       1.00
      C123          C  0.8862708  0.5000007  0.5000006    0.00000       Uiso       1.00
       H79          H  0.8495910  0.4606189  0.2999054    0.00000       Uiso       1.00
       H80          H  0.8495910  0.3759673  0.2999054    0.00000       Uiso       1.00
      C124          C  0.9894045  0.4596776  0.5228776    0.00000       Uiso       1.00
      C125          C  0.9749650  0.4924557  0.5347199    0.00000       Uiso       1.00
      C126          C  0.9422591  0.5057995  0.5283657    0.00000       Uiso       1.00
      C127          C  0.9702485  0.4405575  0.5048193    0.00000       Uiso       1.00
      C128          C  0.9377785  0.4537474  0.4990686    0.00000       Uiso       1.00
      C129          C  0.9229252  0.4866405  0.5107117    0.00000       Uiso       1.00
       H81          H  0.8950698  0.5375157  0.5617658    0.00000       Uiso       1.00
       H82          H  0.9174873  0.4632358  0.5406487    0.00000       Uiso       1.00
       H83          H  0.9800514  0.4153440  0.4941499    0.00000       Uiso       1.00
       H84          H  0.9889544  0.5079291  0.5488007    0.00000       Uiso       1.00
      C130          C  0.8463352  0.6031343  0.5403228    0.00000       Uiso       1.00
      C131          C  0.8665462  0.5839781  0.5594423    0.00000       Uiso       1.00
      C132          C  0.8800800  0.5515082  0.5462542    0.00000       Uiso       1.00
      C133          C  0.8398444  0.5886959  0.5075457    0.00000       Uiso       1.00
      C134          C  0.8528518  0.5559898  0.4942026    0.00000       Uiso       1.00
      C135          C  0.8736874  0.5366551  0.5133613    0.00000       Uiso       1.00
       H85          H  0.9324661  0.5312172  0.5367630    0.00000       Uiso       1.00
       H86          H  0.9017187  0.5088022  0.4624855    0.00000       Uiso       1.00
       H87          H  0.8244699  0.6026860  0.4920723    0.00000       Uiso       1.00
       H88          H  0.8712791  0.5937841  0.5846543    0.00000       Uiso       1.00
      C136          C  0.8459488  0.4771245  0.5399363    0.00000       Uiso       1.00
      C137          C  0.8268289  0.4951846  0.5197204    0.00000       Uiso       1.00
      C138          C  0.8400177  0.5009339  0.5061883    0.00000       Uiso       1.00
      C139          C  0.8787271  0.4652819  0.5464323    0.00000       Uiso       1.00
      C140          C  0.8920697  0.4716364  0.5334238    0.00000       Uiso       1.00
      C141          C  0.8729107  0.4892901  0.5125842    0.00000       Uiso       1.00
       H89          H  0.8495069  0.4593509  0.4538037    0.00000       Uiso       1.00
       H90          H  0.9237852  0.4382361  0.4845536    0.00000       Uiso       1.00
       H91          H  0.8942028  0.4511975  0.5618112    0.00000       Uiso       1.00
       H92          H  0.8016156  0.5058519  0.5149804    0.00000       Uiso       1.00
      C142          C  0.8633944  0.4600650  0.3968669    0.00000       Uiso       1.00
      C143          C  0.8515508  0.4535700  0.4113062    0.00000       Uiso       1.00
      C144          C  0.8579058  0.4665778  0.4440119    0.00000       Uiso       1.00
      C145          C  0.8814557  0.4802795  0.4160230    0.00000       Uiso       1.00
      C146          C  0.8872048  0.4938117  0.4484928    0.00000       Uiso       1.00
      C147          C  0.8755600  0.4874168  0.4633459    0.00000       Uiso       1.00
       H93          H  0.8245065  0.5154455  0.4911956    0.00000       Uiso       1.00
       H94          H  0.8456298  0.5461969  0.4687850    0.00000       Uiso       1.00
       H95          H  0.8921254  0.4850167  0.4062171    0.00000       Uiso       1.00
       H96          H  0.8374665  0.4381913  0.3973184    0.00000       Uiso       1.00
      C148          C  0.4168051  0.8491901  0.2965287    0.00000       Uiso       1.00
      C149          C  0.4470541  0.8515080  0.3129166    0.00000       Uiso       1.00
      C150          C  0.4609073  0.8561748  0.3452513    0.00000       Uiso       1.00
      C151          C  0.4006261  0.8515080  0.3129166    0.00000       Uiso       1.00
      C152          C  0.4144407  0.8561748  0.3452513    0.00000       Uiso       1.00
      C153          C  0.4454675  0.8574749  0.3621384    0.00000       Uiso       1.00
       H97          H  0.6428312  0.7866256  0.5163944    0.00000       Uiso       1.00
       H98          H  0.4732085  0.7866256  0.5163944    0.00000       Uiso       1.00
       H99          H  0.3759671  0.8495911  0.2999054    0.00000       Uiso       1.00
      H100          H  0.4606187  0.8495911  0.2999054    0.00000       Uiso       1.00
      C154          C  0.7034723  0.8030753  0.5831959    0.00000       Uiso       1.00
      C155          C  0.6870844  0.7868964  0.5529469    0.00000       Uiso       1.00
      C156          C  0.6547497  0.8007110  0.5390937    0.00000       Uiso       1.00
      C157          C  0.6870843  0.8333243  0.5993748    0.00000       Uiso       1.00
      C158          C  0.6547496  0.8471776  0.5855601    0.00000       Uiso       1.00
      C159          C  0.6378626  0.8317378  0.5545335    0.00000       Uiso       1.00
      H101          H  0.4836066  0.8594794  0.3571698    0.00000       Uiso       1.00
      H102          H  0.4836064  0.0291015  0.5267922    0.00000       Uiso       1.00
      H103          H  0.7000955  0.8468888  0.6240338    0.00000       Uiso       1.00
      H104          H  0.7000957  0.7622374  0.5393823    0.00000       Uiso       1.00
      C160          C  0.4629191  0.8030753  0.5831959    0.00000       Uiso       1.00
      C161          C  0.4652369  0.8333243  0.5993748    0.00000       Uiso       1.00
      C162          C  0.4699037  0.8471776  0.5855601    0.00000       Uiso       1.00
      C163          C  0.4652370  0.7868964  0.5529469    0.00000       Uiso       1.00
      C164          C  0.4699038  0.8007110  0.5390937    0.00000       Uiso       1.00
      C165          C  0.4712040  0.8317378  0.5545335    0.00000       Uiso       1.00
      H105          H  0.4003550  0.0291015  0.5267922    0.00000       Uiso       1.00
      H106          H  0.4003552  0.8594794  0.3571698    0.00000       Uiso       1.00
      H107          H  0.4633201  0.7622374  0.5393823    0.00000       Uiso       1.00
      H108          H  0.4633200  0.8468888  0.6240338    0.00000       Uiso       1.00
      C166          C  0.4168048  0.0897426  0.5370815    0.00000       Uiso       1.00
      C167          C  0.4006258  0.0733547  0.5347636    0.00000       Uiso       1.00
      C168          C  0.4144405  0.0410200  0.5300969    0.00000       Uiso       1.00
      C169          C  0.4470537  0.0733547  0.5347636    0.00000       Uiso       1.00
      C170          C  0.4609070  0.0410200  0.5300969    0.00000       Uiso       1.00
      C171          C  0.4454672  0.0241329  0.5287967    0.00000       Uiso       1.00
      H109          H  0.4732084  0.8698769  0.5996457    0.00000       Uiso       1.00
      H110          H  0.6428311  0.8698769  0.5996457    0.00000       Uiso       1.00
      C172          C  0.5000005  0.8862709  0.5000005    0.00000       Uiso       1.00
      H111          H  0.4606183  0.0863660  0.5366805    0.00000       Uiso       1.00
      H112          H  0.3759668  0.0863660  0.5366805    0.00000       Uiso       1.00
      C173          C  0.4596777  0.8633940  0.3968669    0.00000       Uiso       1.00
      C174          C  0.4924557  0.8515515  0.4113064    0.00000       Uiso       1.00
      C175          C  0.5057995  0.8579057  0.4440122    0.00000       Uiso       1.00
      C176          C  0.4405576  0.8814522  0.4160230    0.00000       Uiso       1.00
      C177          C  0.4537473  0.8872028  0.4484929    0.00000       Uiso       1.00
      C178          C  0.4866404  0.8755597  0.4633462    0.00000       Uiso       1.00
      H113          H  0.5375156  0.8245056  0.4912014    0.00000       Uiso       1.00
      H114          H  0.4632358  0.8456227  0.4687839    0.00000       Uiso       1.00
      H115          H  0.4153440  0.8921217  0.4062200    0.00000       Uiso       1.00
      H116          H  0.5079292  0.8374708  0.3973169    0.00000       Uiso       1.00
      C179          C  0.6031342  0.8459485  0.5399359    0.00000       Uiso       1.00
      C180          C  0.5839780  0.8268289  0.5197248    0.00000       Uiso       1.00
      C181          C  0.5515081  0.8400172  0.5061912    0.00000       Uiso       1.00
      C182          C  0.5886958  0.8787256  0.5464268    0.00000       Uiso       1.00
      C183          C  0.5559896  0.8920689  0.5334194    0.00000       Uiso       1.00
      C184          C  0.5366549  0.8729100  0.5125839    0.00000       Uiso       1.00
      H117          H  0.5312172  0.8495085  0.4538051    0.00000       Uiso       1.00
      H118          H  0.5088019  0.9237860  0.4845526    0.00000       Uiso       1.00
      H119          H  0.6026857  0.8941990  0.5618013    0.00000       Uiso       1.00
      H120          H  0.5937840  0.8016169  0.5149920    0.00000       Uiso       1.00
      C185          C  0.4771243  0.8463350  0.5403224    0.00000       Uiso       1.00
      C186          C  0.4951845  0.8665509  0.5594423    0.00000       Uiso       1.00
      C187          C  0.5009338  0.8800830  0.5462536    0.00000       Uiso       1.00
      C188          C  0.4652818  0.8398390  0.5075442    0.00000       Uiso       1.00
      C189          C  0.4716363  0.8528476  0.4942015    0.00000       Uiso       1.00
      C190          C  0.4892900  0.8736871  0.5133606    0.00000       Uiso       1.00
      H121          H  0.4593506  0.9324677  0.5367644    0.00000       Uiso       1.00
      H122          H  0.4382361  0.9017178  0.4624862    0.00000       Uiso       1.00
      H123          H  0.4511975  0.8244601  0.4920684    0.00000       Uiso       1.00
      H124          H  0.5058516  0.8712909  0.5846556    0.00000       Uiso       1.00
      C191          C  0.4600647  0.9894046  0.5228770    0.00000       Uiso       1.00
      C192          C  0.4535696  0.9749653  0.5347205    0.00000       Uiso       1.00
      C193          C  0.4665776  0.9422595  0.5283655    0.00000       Uiso       1.00
      C194          C  0.4802792  0.9702486  0.5048157    0.00000       Uiso       1.00
      C195          C  0.4938115  0.9377787  0.4990665    0.00000       Uiso       1.00
      C196          C  0.4874165  0.9229256  0.5107113    0.00000       Uiso       1.00
      H125          H  0.5154452  0.8950757  0.5617647    0.00000       Uiso       1.00
      H126          H  0.5461966  0.9174864  0.5406415    0.00000       Uiso       1.00
      H127          H  0.4850164  0.9800544  0.4941459    0.00000       Uiso       1.00
      H128          H  0.4381909  0.9889531  0.5488048    0.00000       Uiso       1.00
      C197          C  0.4168041  0.0897419  0.9694657    0.00000       Uiso       1.00
      C198          C  0.4470530  0.0733540  0.9856446    0.00000       Uiso       1.00
      C199          C  0.4609064  0.0410193  0.9718301    0.00000       Uiso       1.00
      C200          C  0.4006252  0.0733541  0.9392168    0.00000       Uiso       1.00
      C201          C  0.4144399  0.0410194  0.9253635    0.00000       Uiso       1.00
      C202          C  0.4454666  0.0241323  0.9408033    0.00000       Uiso       1.00
      H129          H  0.6428306  0.8698764  0.9130621    0.00000       Uiso       1.00
      H130          H  0.4732082  0.8698767  0.7434397    0.00000       Uiso       1.00
      H131          H  0.3759662  0.0863654  0.9256522    0.00000       Uiso       1.00
      H132          H  0.4606170  0.0863647  0.0103028    0.00000       Uiso       1.00
      C203          C  0.7034717  0.8030748  0.9233515    0.00000       Uiso       1.00
      C204          C  0.6870838  0.8333238  0.9210336    0.00000       Uiso       1.00
      C205          C  0.6547491  0.8471771  0.9163668    0.00000       Uiso       1.00
      C206          C  0.6870838  0.7868959  0.9210336    0.00000       Uiso       1.00
      C207          C  0.6547491  0.8007105  0.9163668    0.00000       Uiso       1.00
      C208          C  0.6378620  0.8317372  0.9150666    0.00000       Uiso       1.00
      H133          H  0.4836057  0.0291008  0.9859155    0.00000       Uiso       1.00
      H134          H  0.4836057  0.8594784  0.9859155    0.00000       Uiso       1.00
      H135          H  0.7000951  0.7622368  0.9229504    0.00000       Uiso       1.00
      H136          H  0.7000951  0.8468884  0.9229504    0.00000       Uiso       1.00
      C209          C  0.4629189  0.8030751  0.6827986    0.00000       Uiso       1.00
      C210          C  0.4652368  0.7868962  0.6991865    0.00000       Uiso       1.00
      C211          C  0.4699035  0.8007107  0.7315212    0.00000       Uiso       1.00
      C212          C  0.4652368  0.8333241  0.6991865    0.00000       Uiso       1.00
      C213          C  0.4699035  0.8471773  0.7315212    0.00000       Uiso       1.00
      C214          C  0.4712037  0.8317375  0.7484083    0.00000       Uiso       1.00
      H137          H  0.4003544  0.8594786  0.9026643    0.00000       Uiso       1.00
      H138          H  0.4003544  0.0291009  0.9026643    0.00000       Uiso       1.00
      H139          H  0.4633200  0.8468887  0.6861752    0.00000       Uiso       1.00
      H140          H  0.4633199  0.7622372  0.6861752    0.00000       Uiso       1.00
      C215          C  0.4168041  0.8491891  0.9694657    0.00000       Uiso       1.00
      C216          C  0.4006252  0.8515070  0.9392168    0.00000       Uiso       1.00
      C217          C  0.4144399  0.8561738  0.9253635    0.00000       Uiso       1.00
      C218          C  0.4470530  0.8515070  0.9856446    0.00000       Uiso       1.00
      C219          C  0.4609064  0.8561738  0.9718301    0.00000       Uiso       1.00
      C220          C  0.4454666  0.8574740  0.9408033    0.00000       Uiso       1.00
      H141          H  0.4732082  0.7866253  0.7434397    0.00000       Uiso       1.00
      H142          H  0.6428306  0.7866250  0.9130621    0.00000       Uiso       1.00
      C221          C  0.4999999  0.8862703  0.8862705    0.00000       Uiso       1.00
      H143          H  0.4606170  0.8495895  0.0103028    0.00000       Uiso       1.00
      H144          H  0.3759662  0.8495902  0.9256522    0.00000       Uiso       1.00
      C222          C  0.4596769  0.9894041  0.9262042    0.00000       Uiso       1.00
      C223          C  0.4924549  0.9749646  0.9327005    0.00000       Uiso       1.00
      C224          C  0.5057988  0.9422587  0.9196925    0.00000       Uiso       1.00
      C225          C  0.4405568  0.9702480  0.9059864    0.00000       Uiso       1.00
      C226          C  0.4537466  0.9377780  0.8924568    0.00000       Uiso       1.00
      C227          C  0.4866398  0.9229247  0.8988536    0.00000       Uiso       1.00
      H145          H  0.5375151  0.8950694  0.8708194    0.00000       Uiso       1.00
      H146          H  0.4632352  0.9174870  0.8400743    0.00000       Uiso       1.00
      H147          H  0.4153433  0.9800509  0.9012452    0.00000       Uiso       1.00
      H148          H  0.5079284  0.9889539  0.9480825    0.00000       Uiso       1.00
      C228          C  0.6031337  0.8463348  0.9091464    0.00000       Uiso       1.00
      C229          C  0.5839775  0.8665459  0.8910818    0.00000       Uiso       1.00
      C230          C  0.5515076  0.8800796  0.8853338    0.00000       Uiso       1.00
      C231          C  0.5886952  0.8398439  0.9209943    0.00000       Uiso       1.00
      C232          C  0.5559890  0.8528514  0.9146387    0.00000       Uiso       1.00
      C233          C  0.5366544  0.8736869  0.8969808    0.00000       Uiso       1.00
      H149          H  0.5312164  0.9324657  0.9269201    0.00000       Uiso       1.00
      H150          H  0.5088013  0.9017181  0.9480350    0.00000       Uiso       1.00
      H151          H  0.6026853  0.8244694  0.9350833    0.00000       Uiso       1.00
      H152          H  0.5937835  0.8712788  0.8804087    0.00000       Uiso       1.00
      C234          C  0.4771240  0.8459486  0.7831369    0.00000       Uiso       1.00
      C235          C  0.4951841  0.8268286  0.8022930    0.00000       Uiso       1.00
      C236          C  0.5009333  0.8400173  0.8347630    0.00000       Uiso       1.00
      C237          C  0.4652814  0.8787268  0.7975764    0.00000       Uiso       1.00
      C238          C  0.4716358  0.8920694  0.8302821    0.00000       Uiso       1.00
      C239          C  0.4892895  0.8729103  0.8496163    0.00000       Uiso       1.00
      H153          H  0.4593501  0.8495063  0.8550536    0.00000       Uiso       1.00
      H154          H  0.4382354  0.9237847  0.8774674    0.00000       Uiso       1.00
      H155          H  0.4511970  0.8942026  0.7835889    0.00000       Uiso       1.00
      H156          H  0.5058513  0.8016153  0.7924868    0.00000       Uiso       1.00
      C240          C  0.4600641  0.8633938  0.9265921    0.00000       Uiso       1.00
      C241          C  0.4535691  0.8515502  0.8938141    0.00000       Uiso       1.00
      C242          C  0.4665770  0.8579053  0.8804713    0.00000       Uiso       1.00
      C243          C  0.4802786  0.8814551  0.9457117    0.00000       Uiso       1.00
      C244          C  0.4938109  0.8872042  0.9325233    0.00000       Uiso       1.00
      C245          C  0.4874160  0.8755595  0.8996306    0.00000       Uiso       1.00
      H157          H  0.5154448  0.8245061  0.8487561    0.00000       Uiso       1.00
      H158          H  0.5461960  0.8456292  0.9230412    0.00000       Uiso       1.00
      H159          H  0.4850157  0.8921248  0.9709245    0.00000       Uiso       1.00
      H160          H  0.4381904  0.8374660  0.8783390    0.00000       Uiso       1.00
      C246          C  0.8491889  0.0897419  0.9694657    0.00000       Uiso       1.00
      C247          C  0.8515069  0.0733541  0.9392168    0.00000       Uiso       1.00
      C248          C  0.8561737  0.0410194  0.9253635    0.00000       Uiso       1.00
      C249          C  0.8515068  0.0733540  0.9856446    0.00000       Uiso       1.00
      C250          C  0.8561736  0.0410193  0.9718301    0.00000       Uiso       1.00
      C251          C  0.8574739  0.0241323  0.9408033    0.00000       Uiso       1.00
      H161          H  0.7866251  0.8698767  0.7434397    0.00000       Uiso       1.00
      H162          H  0.7866248  0.8698764  0.9130621    0.00000       Uiso       1.00
      H163          H  0.8495893  0.0863647  0.0103028    0.00000       Uiso       1.00
      H164          H  0.8495901  0.0863654  0.9256522    0.00000       Uiso       1.00
      C252          C  0.8030750  0.8030751  0.6827986    0.00000       Uiso       1.00
      C253          C  0.7868960  0.8333241  0.6991865    0.00000       Uiso       1.00
      C254          C  0.8007106  0.8471773  0.7315212    0.00000       Uiso       1.00
      C255          C  0.8333240  0.7868962  0.6991865    0.00000       Uiso       1.00
      C256          C  0.8471772  0.8007107  0.7315212    0.00000       Uiso       1.00
      C257          C  0.8317373  0.8317375  0.7484083    0.00000       Uiso       1.00
      H165          H  0.8594784  0.0291009  0.9026643    0.00000       Uiso       1.00
      H166          H  0.0291008  0.8594786  0.9026643    0.00000       Uiso       1.00
      H167          H  0.8468886  0.7622371  0.6861752    0.00000       Uiso       1.00
      H168          H  0.7622370  0.8468887  0.6861752    0.00000       Uiso       1.00
      C258          C  0.8030747  0.8030748  0.9233515    0.00000       Uiso       1.00
      C259          C  0.8333237  0.7868959  0.9210336    0.00000       Uiso       1.00
      C260          C  0.8471769  0.8007105  0.9163668    0.00000       Uiso       1.00
      C261          C  0.7868958  0.8333238  0.9210336    0.00000       Uiso       1.00
      C262          C  0.8007103  0.8471771  0.9163668    0.00000       Uiso       1.00
      C263          C  0.8317371  0.8317372  0.9150666    0.00000       Uiso       1.00
      H169          H  0.0291007  0.8594784  0.9859155    0.00000       Uiso       1.00
      H170          H  0.8594783  0.0291008  0.9859155    0.00000       Uiso       1.00
      H171          H  0.7622367  0.8468884  0.9229504    0.00000       Uiso       1.00
      H172          H  0.8468882  0.7622368  0.9229504    0.00000       Uiso       1.00
      C264          C  0.0897418  0.8491891  0.9694657    0.00000       Uiso       1.00
      C265          C  0.0733538  0.8515070  0.9856446    0.00000       Uiso       1.00
      C266          C  0.0410191  0.8561738  0.9718301    0.00000       Uiso       1.00
      C267          C  0.0733539  0.8515070  0.9392168    0.00000       Uiso       1.00
      C268          C  0.0410192  0.8561738  0.9253635    0.00000       Uiso       1.00
      C269          C  0.0241321  0.8574740  0.9408033    0.00000       Uiso       1.00
      H173          H  0.8698763  0.7866250  0.9130621    0.00000       Uiso       1.00
      H174          H  0.8698765  0.7866253  0.7434397    0.00000       Uiso       1.00
      C270          C  0.8862700  0.8862703  0.8862702    0.00000       Uiso       1.00
      H175          H  0.0863652  0.8495902  0.9256522    0.00000       Uiso       1.00
      H176          H  0.0863645  0.8495895  0.0103028    0.00000       Uiso       1.00
      C271          C  0.8633930  0.9894040  0.9265931    0.00000       Uiso       1.00
      C272          C  0.8515507  0.9749646  0.8938152    0.00000       Uiso       1.00
      C273          C  0.8579049  0.9422587  0.8804713    0.00000       Uiso       1.00
      C274          C  0.8814512  0.9702479  0.9457132    0.00000       Uiso       1.00
      C275          C  0.8872019  0.9377779  0.9325234    0.00000       Uiso       1.00
      C276          C  0.8755590  0.9229247  0.8996303    0.00000       Uiso       1.00
      H177          H  0.8245049  0.8950695  0.8487551    0.00000       Uiso       1.00
      H178          H  0.8456219  0.9174870  0.9230350    0.00000       Uiso       1.00
      H179          H  0.8921207  0.9800508  0.9709266    0.00000       Uiso       1.00
      H180          H  0.8374699  0.9889541  0.8783416    0.00000       Uiso       1.00
      C277          C  0.8459479  0.8463349  0.7831365    0.00000       Uiso       1.00
      C278          C  0.8268284  0.8665460  0.8022928    0.00000       Uiso       1.00
      C279          C  0.8400165  0.8800797  0.8347626    0.00000       Uiso       1.00
      C280          C  0.8787251  0.8398440  0.7975750    0.00000       Uiso       1.00
      C281          C  0.8920683  0.8528515  0.8302812    0.00000       Uiso       1.00
      C282          C  0.8729094  0.8736870  0.8496158    0.00000       Uiso       1.00
      H181          H  0.8495078  0.9324659  0.8550537    0.00000       Uiso       1.00
      H182          H  0.9237853  0.9017183  0.8774687    0.00000       Uiso       1.00
      H183          H  0.8941985  0.8244696  0.7835850    0.00000       Uiso       1.00
      H184          H  0.8016164  0.8712789  0.7924868    0.00000       Uiso       1.00
      C283          C  0.8463343  0.8459484  0.9091462    0.00000       Uiso       1.00
      C284          C  0.8665503  0.8268285  0.8910862    0.00000       Uiso       1.00
      C285          C  0.8800823  0.8400173  0.8853369    0.00000       Uiso       1.00
      C286          C  0.8398383  0.8787265  0.9209888    0.00000       Uiso       1.00
      C287          C  0.8528469  0.8920693  0.9146344    0.00000       Uiso       1.00
      C288          C  0.8736864  0.8729103  0.8969806    0.00000       Uiso       1.00
      H185          H  0.9324669  0.8495063  0.9269199    0.00000       Uiso       1.00
      H186          H  0.9017170  0.9237846  0.9480346    0.00000       Uiso       1.00
      H187          H  0.8244593  0.8942024  0.9350732    0.00000       Uiso       1.00
      H188          H  0.8712902  0.8016152  0.8804190    0.00000       Uiso       1.00
      C289          C  0.9894040  0.8633938  0.9262059    0.00000       Uiso       1.00
      C290          C  0.9749645  0.8515502  0.9327009    0.00000       Uiso       1.00
      C291          C  0.9422588  0.8579053  0.9196931    0.00000       Uiso       1.00
      C292          C  0.9702478  0.8814551  0.9059914    0.00000       Uiso       1.00
      C293          C  0.9377779  0.8872043  0.8924592    0.00000       Uiso       1.00
      C294          C  0.9229249  0.8755595  0.8988541    0.00000       Uiso       1.00
      H189          H  0.8950751  0.8245060  0.8708254    0.00000       Uiso       1.00
      H190          H  0.9174859  0.8456293  0.8400741    0.00000       Uiso       1.00
      H191          H  0.9800537  0.8921249  0.9012542    0.00000       Uiso       1.00
      H192          H  0.9889523  0.8374659  0.9480796    0.00000       Uiso       1.00
        N1          N  0.7549220  0.4625533  0.5861266    0.00000       Uiso       1.00
      C295          C  0.7854800  0.4625648  0.6007906    0.00000       Uiso       1.00
      C296          C  0.7854802  0.4625648  0.6472541    0.00000       Uiso       1.00
        N2          N  0.8001439  0.4625533  0.6313485    0.00000       Uiso       1.00
        N3          N  0.7549222  0.4625532  0.6313485    0.00000       Uiso       1.00
      C297          C  0.7390166  0.4625648  0.6007906    0.00000       Uiso       1.00
        N4          N  0.4625531  0.7549222  0.6313490    0.00000       Uiso       1.00
      C298          C  0.4625646  0.7854800  0.6472545    0.00000       Uiso       1.00
      C299          C  0.4625647  0.7854804  0.6007912    0.00000       Uiso       1.00
        N5          N  0.4625531  0.8001441  0.6313490    0.00000       Uiso       1.00
        N6          N  0.4625531  0.7549224  0.5861273    0.00000       Uiso       1.00
      C300          C  0.4625647  0.7390168  0.6007912    0.00000       Uiso       1.00
      C301          C  0.3652625  0.3912957  0.5428546    0.00000       Uiso       1.00
      C302          C  0.3384005  0.3927171  0.5444734    0.00000       Uiso       1.00
      C303          C  0.3126185  0.4207850  0.5476195    0.00000       Uiso       1.00
      C304          C  0.2852991  0.4213464  0.5476055    0.00000       Uiso       1.00
      C305          C  0.2824334  0.3933907  0.5426517    0.00000       Uiso       1.00
      C306          C  0.3085360  0.3652608  0.5390507    0.00000       Uiso       1.00
      C307          C  0.3373473  0.3648303  0.5421476    0.00000       Uiso       1.00
        O1          O  0.3695730  0.4160381  0.5435331    0.00000       Uiso       1.00
      H193          H  0.3137672  0.4423346  0.5501202    0.00000       Uiso       1.00
      H194          H  0.2664965  0.4438221  0.5511632    0.00000       Uiso       1.00
      H195          H  0.3058271  0.3431332  0.5317950    0.00000       Uiso       1.00
      C308          C  0.3913002  0.1726093  0.5429378    0.00000       Uiso       1.00
      C309          C  0.3927251  0.1996771  0.5445754    0.00000       Uiso       1.00
      C310          C  0.4207866  0.2005381  0.5477059    0.00000       Uiso       1.00
      C311          C  0.4213399  0.2272818  0.5476825    0.00000       Uiso       1.00
      C312          C  0.3933814  0.2531460  0.5427269    0.00000       Uiso       1.00
      C313          C  0.3652618  0.2515746  0.5391571    0.00000       Uiso       1.00
      C314          C  0.3648418  0.2262928  0.5422671    0.00000       Uiso       1.00
        O2          O  0.4160346  0.1442229  0.5435736    0.00000       Uiso       1.00
      H196          H  0.4423348  0.1803381  0.5501858    0.00000       Uiso       1.00
      H197          H  0.4438119  0.2271612  0.5512246    0.00000       Uiso       1.00
      H198          H  0.3431283  0.2691453  0.5319037    0.00000       Uiso       1.00
      C315          C  0.1725924  0.3653013  0.5429091    0.00000       Uiso       1.00
      C316          C  0.1996648  0.3384594  0.5445711    0.00000       Uiso       1.00
      C317          C  0.2005304  0.3126919  0.5477456    0.00000       Uiso       1.00
      C318          C  0.2272847  0.2853800  0.5477616    0.00000       Uiso       1.00
      C319          C  0.2531564  0.2825108  0.5428104    0.00000       Uiso       1.00
      C320          C  0.2515821  0.3086098  0.5391981    0.00000       Uiso       1.00
      C321          C  0.2262806  0.3374105  0.5422546    0.00000       Uiso       1.00
        O3          O  0.1442201  0.3696025  0.5435821    0.00000       Uiso       1.00
      H199          H  0.1803188  0.3138461  0.5502291    0.00000       Uiso       1.00
      H200          H  0.2271685  0.2665819  0.5513268    0.00000       Uiso       1.00
      H201          H  0.2691699  0.3059035  0.5319536    0.00000       Uiso       1.00
      C322          C  0.1713065  0.3901342  0.5388158    0.00000       Uiso       1.00
      C323          C  0.1976222  0.3907278  0.5380659    0.00000       Uiso       1.00
      C324          C  0.1964270  0.4165158  0.5346388    0.00000       Uiso       1.00
      C325          C  0.2233741  0.4171877  0.5351443    0.00000       Uiso       1.00
      C326          C  0.2526660  0.3928734  0.5409147    0.00000       Uiso       1.00
      C327          C  0.2534844  0.3674552  0.5450215    0.00000       Uiso       1.00
      C328          C  0.2260042  0.3647477  0.5413480    0.00000       Uiso       1.00
        O4          O  0.1419945  0.4138007  0.5364823    0.00000       Uiso       1.00
      H202          H  0.1744312  0.4361319  0.5314425    0.00000       Uiso       1.00
      H203          H  0.2209083  0.4370645  0.5312316    0.00000       Uiso       1.00
      H204          H  0.2759223  0.3505366  0.5529497    0.00000       Uiso       1.00
      C329          C  0.3636704  0.1713423  0.5388985    0.00000       Uiso       1.00
      C330          C  0.3360206  0.1976691  0.5381779    0.00000       Uiso       1.00
      C331          C  0.3080148  0.1965005  0.5348187    0.00000       Uiso       1.00
      C332          C  0.2809126  0.2234564  0.5353453    0.00000       Uiso       1.00
      C333          C  0.2816976  0.2527348  0.5410628    0.00000       Uiso       1.00
      C334          C  0.3103926  0.2535258  0.5451062    0.00000       Uiso       1.00
      C335          C  0.3368933  0.2260357  0.5414169    0.00000       Uiso       1.00
        O5          O  0.3669831  0.1420347  0.5365745    0.00000       Uiso       1.00
      H205          H  0.3071959  0.1745132  0.5316449    0.00000       Uiso       1.00
      H206          H  0.2596010  0.2210012  0.5314799    0.00000       Uiso       1.00
      H207          H  0.3128169  0.2759507  0.5530113    0.00000       Uiso       1.00
      C336          C  0.3901175  0.3636616  0.5388123    0.00000       Uiso       1.00
      C337          C  0.3907063  0.3360102  0.5380707    0.00000       Uiso       1.00
      C338          C  0.4165256  0.3080104  0.5347207    0.00000       Uiso       1.00
      C339          C  0.4172052  0.2809076  0.5352517    0.00000       Uiso       1.00
      C340          C  0.3928506  0.2816842  0.5409529    0.00000       Uiso       1.00
      C341          C  0.3673931  0.3103738  0.5449737    0.00000       Uiso       1.00
      C342          C  0.3646978  0.3368780  0.5412920    0.00000       Uiso       1.00
        O6          O  0.4138079  0.3669764  0.5365229    0.00000       Uiso       1.00
      H208          H  0.4361601  0.3072037  0.5315593    0.00000       Uiso       1.00
      H209          H  0.4371201  0.2596053  0.5314068    0.00000       Uiso       1.00
      H210          H  0.3504373  0.3127924  0.5528631    0.00000       Uiso       1.00
        B1          B  0.4004878  0.4003165  0.5395046    0.00000       Uiso       1.00
        B2          B  0.4003164  0.1249895  0.5395285    0.00000       Uiso       1.00
        B3          B  0.1249726  0.4004909  0.5394989    0.00000       Uiso       1.00
      C343          C  0.3912960  0.3652632  0.2137044    0.00000       Uiso       1.00
      C344          C  0.3927175  0.3384011  0.1866450    0.00000       Uiso       1.00
      C345          C  0.4207853  0.3126192  0.1857847    0.00000       Uiso       1.00
      C346          C  0.4213469  0.2852998  0.1590409    0.00000       Uiso       1.00
      C347          C  0.3933912  0.2824342  0.1331733    0.00000       Uiso       1.00
      C348          C  0.3652612  0.3085367  0.1347469    0.00000       Uiso       1.00
      C349          C  0.3648307  0.3373480  0.1600308    0.00000       Uiso       1.00
        O7          O  0.4160384  0.3695736  0.2420786    0.00000       Uiso       1.00
      H211          H  0.4423350  0.3137679  0.2059824    0.00000       Uiso       1.00
      H212          H  0.4438226  0.2664973  0.1591564    0.00000       Uiso       1.00
      H213          H  0.3431336  0.3058279  0.1171662    0.00000       Uiso       1.00
      C350          C  0.1726100  0.3913011  0.0209727    0.00000       Uiso       1.00
      C351          C  0.1996777  0.3927260  0.0478278    0.00000       Uiso       1.00
      C352          C  0.2005386  0.4207875  0.0736198    0.00000       Uiso       1.00
      C353          C  0.2272823  0.4213407  0.1009402    0.00000       Uiso       1.00
      C354          C  0.2531465  0.3933822  0.1038014    0.00000       Uiso       1.00
      C355          C  0.2515751  0.3652627  0.0776803    0.00000       Uiso       1.00
      C356          C  0.2262933  0.3648427  0.0488684    0.00000       Uiso       1.00
        O8          O  0.1442235  0.4160355  0.0166849    0.00000       Uiso       1.00
      H214          H  0.1803387  0.4423357  0.0724881    0.00000       Uiso       1.00
      H215          H  0.2271617  0.4438127  0.1197494    0.00000       Uiso       1.00
      H216          H  0.2691458  0.3431291  0.0803708    0.00000       Uiso       1.00
      C357          C  0.3653026  0.1725940  0.9949866    0.00000       Uiso       1.00
      C358          C  0.3384607  0.1996664  0.9935551    0.00000       Uiso       1.00
      C359          C  0.3126932  0.2005320  0.9654788    0.00000       Uiso       1.00
      C360          C  0.2853813  0.2272863  0.9649053    0.00000       Uiso       1.00
      C361          C  0.2825120  0.2531579  0.9928587    0.00000       Uiso       1.00
      C362          C  0.3086105  0.2515830  0.0209949    0.00000       Uiso       1.00
      C363          C  0.3374111  0.2262815  0.0214375    0.00000       Uiso       1.00
        O9          O  0.3696038  0.1442216  0.9702425    0.00000       Uiso       1.00
      H217          H  0.3138475  0.1803205  0.9439380    0.00000       Uiso       1.00
      H218          H  0.2665833  0.2271702  0.9424258    0.00000       Uiso       1.00
      H219          H  0.3059040  0.2691707  0.0431207    0.00000       Uiso       1.00
      C364          C  0.3901348  0.1713074  0.0226259    0.00000       Uiso       1.00
      C365          C  0.3907284  0.1976231  0.0502851    0.00000       Uiso       1.00
      C366          C  0.4165163  0.1964279  0.0783051    0.00000       Uiso       1.00
      C367          C  0.4171882  0.2233749  0.1054184    0.00000       Uiso       1.00
      C368          C  0.3928739  0.2526668  0.1046257    0.00000       Uiso       1.00
      C369          C  0.3674558  0.2534853  0.0759191    0.00000       Uiso       1.00
      C370          C  0.3647483  0.2260051  0.0494049    0.00000       Uiso       1.00
       O10          O  0.4138014  0.1419954  0.0193140    0.00000       Uiso       1.00
      H220          H  0.4361324  0.1744321  0.0791216    0.00000       Uiso       1.00
      H221          H  0.4370649  0.2209090  0.1267420    0.00000       Uiso       1.00
      H222          H  0.3505372  0.2759232  0.0735102    0.00000       Uiso       1.00
      C371          C  0.1713436  0.3636720  0.9961162    0.00000       Uiso       1.00
      C372          C  0.1976704  0.3360222  0.9955139    0.00000       Uiso       1.00
      C373          C  0.1965018  0.3080164  0.9696987    0.00000       Uiso       1.00
      C374          C  0.2234577  0.2809142  0.9690257    0.00000       Uiso       1.00
      C375          C  0.2527361  0.2816992  0.9933717    0.00000       Uiso       1.00
      C376          C  0.2535264  0.3103936  0.0188133    0.00000       Uiso       1.00
      C377          C  0.2260364  0.3368943  0.0215133    0.00000       Uiso       1.00
       O11          O  0.1420360  0.3669847  0.9724452    0.00000       Uiso       1.00
      H223          H  0.1745145  0.3071975  0.9500663    0.00000       Uiso       1.00
      H224          H  0.2210025  0.2596026  0.9491243    0.00000       Uiso       1.00
      H225          H  0.2759513  0.3128178  0.0357573    0.00000       Uiso       1.00
      C378          C  0.3636619  0.3901181  0.2149675    0.00000       Uiso       1.00
      C379          C  0.3360106  0.3907070  0.1886466    0.00000       Uiso       1.00
      C380          C  0.3080108  0.4165263  0.1898161    0.00000       Uiso       1.00
      C381          C  0.2809080  0.4172059  0.1628618    0.00000       Uiso       1.00
      C382          C  0.2816846  0.3928514  0.1335828    0.00000       Uiso       1.00
      C383          C  0.3103742  0.3673938  0.1327939    0.00000       Uiso       1.00
      C384          C  0.3368784  0.3646986  0.1602848    0.00000       Uiso       1.00
       O12          O  0.3669766  0.4138085  0.2442621    0.00000       Uiso       1.00
      H226          H  0.3072041  0.4361607  0.2118053    0.00000       Uiso       1.00
      H227          H  0.2596057  0.4371208  0.1653195    0.00000       Uiso       1.00
      H228          H  0.3127929  0.3504381  0.1103676    0.00000       Uiso       1.00
        B4          B  0.4003168  0.4004884  0.2613004    0.00000       Uiso       1.00
        B5          B  0.1249907  0.4003179  0.9857793    0.00000       Uiso       1.00
        B6          B  0.4004921  0.1249742  0.9859666    0.00000       Uiso       1.00
        N7          N  0.8001439  0.7549217  0.9237173    0.00000       Uiso       1.00
      C385          C  0.7854800  0.7854796  0.9237058    0.00000       Uiso       1.00
      C386          C  0.7390164  0.7854799  0.9237058    0.00000       Uiso       1.00
        N8          N  0.7549220  0.8001437  0.9237173    0.00000       Uiso       1.00
        N9          N  0.7549220  0.7549219  0.9237173    0.00000       Uiso       1.00
      C387          C  0.7854800  0.7390163  0.9237058    0.00000       Uiso       1.00
      C388          C  0.8434159  0.3652620  0.9949749    0.00000       Uiso       1.00
      C389          C  0.8417971  0.3383999  0.9935535    0.00000       Uiso       1.00
      C390          C  0.8386509  0.3126180  0.9654856    0.00000       Uiso       1.00
      C391          C  0.8386651  0.2852986  0.9649242    0.00000       Uiso       1.00
      C392          C  0.8436188  0.2824329  0.9928799    0.00000       Uiso       1.00
      C393          C  0.8472191  0.3085348  0.0210089    0.00000       Uiso       1.00
      C394          C  0.8441222  0.3373461  0.0214394    0.00000       Uiso       1.00
       O13          O  0.8427374  0.3695725  0.9702326    0.00000       Uiso       1.00
      H229          H  0.8361503  0.3137667  0.9439360    0.00000       Uiso       1.00
      H230          H  0.8351073  0.2664961  0.9424486    0.00000       Uiso       1.00
      H231          H  0.8544749  0.3058259  0.0431365    0.00000       Uiso       1.00
      C395          C  0.8433318  0.3912987  0.2136600    0.00000       Uiso       1.00
      C396          C  0.8416942  0.3927237  0.1865923    0.00000       Uiso       1.00
      C397          C  0.8385637  0.4207853  0.1857313    0.00000       Uiso       1.00
      C398          C  0.8385871  0.4213386  0.1589876    0.00000       Uiso       1.00
      C399          C  0.8435428  0.3933800  0.1331235    0.00000       Uiso       1.00
      C400          C  0.8471125  0.3652605  0.1346949    0.00000       Uiso       1.00
      C401          C  0.8440025  0.3648404  0.1599767    0.00000       Uiso       1.00
       O14          O  0.8426959  0.4160331  0.2420464    0.00000       Uiso       1.00
      H232          H  0.8360838  0.4423334  0.2059313    0.00000       Uiso       1.00
      H233          H  0.8350450  0.4438106  0.1591082    0.00000       Uiso       1.00
      H234          H  0.8543659  0.3431270  0.1171242    0.00000       Uiso       1.00
      C402          C  0.8433607  0.1725913  0.0209683    0.00000       Uiso       1.00
      C403          C  0.8416986  0.1996636  0.0478102    0.00000       Uiso       1.00
      C404          C  0.8385242  0.2005291  0.0735776    0.00000       Uiso       1.00
      C405          C  0.8385081  0.2272834  0.1008895    0.00000       Uiso       1.00
      C406          C  0.8434593  0.2531551  0.1037588    0.00000       Uiso       1.00
      C407          C  0.8470716  0.2515809  0.0776597    0.00000       Uiso       1.00
      C408          C  0.8440152  0.2262794  0.0488591    0.00000       Uiso       1.00
       O15          O  0.8426877  0.1442189  0.0166671    0.00000       Uiso       1.00
      H235          H  0.8360407  0.1803176  0.0724234    0.00000       Uiso       1.00
      H236          H  0.8349429  0.2271672  0.1196876    0.00000       Uiso       1.00
      H237          H  0.8543162  0.2691686  0.0803661    0.00000       Uiso       1.00
      C409          C  0.8474547  0.1713059  0.9961364    0.00000       Uiso       1.00
      C410          C  0.8482046  0.1976217  0.9955428    0.00000       Uiso       1.00
      C411          C  0.8516318  0.1964266  0.9697549    0.00000       Uiso       1.00
      C412          C  0.8511263  0.2233736  0.9690830    0.00000       Uiso       1.00
      C413          C  0.8453557  0.2526655  0.9933972    0.00000       Uiso       1.00
      C414          C  0.8412483  0.2534833  0.0188144    0.00000       Uiso       1.00
      C415          C  0.8449218  0.2260031  0.0215219    0.00000       Uiso       1.00
       O16          O  0.8497882  0.1419940  0.9724699    0.00000       Uiso       1.00
      H238          H  0.8548281  0.1744308  0.9501387    0.00000       Uiso       1.00
      H239          H  0.8550389  0.2209078  0.9492062    0.00000       Uiso       1.00
      H240          H  0.8333201  0.2759211  0.0357330    0.00000       Uiso       1.00
      C416          C  0.8473710  0.3636689  0.2149270    0.00000       Uiso       1.00
      C417          C  0.8480917  0.3360192  0.1886003    0.00000       Uiso       1.00
      C418          C  0.8514509  0.3080133  0.1897689    0.00000       Uiso       1.00
      C419          C  0.8509243  0.2809112  0.1628130    0.00000       Uiso       1.00
      C420          C  0.8452069  0.2816963  0.1335346    0.00000       Uiso       1.00
      C421          C  0.8411635  0.3103913  0.1327437    0.00000       Uiso       1.00
      C422          C  0.8448527  0.3368920  0.1602337    0.00000       Uiso       1.00
       O17          O  0.8496949  0.3669816  0.2442346    0.00000       Uiso       1.00
      H241          H  0.8546247  0.3071944  0.2117561    0.00000       Uiso       1.00
      H242          H  0.8547897  0.2595996  0.1652683    0.00000       Uiso       1.00
      H243          H  0.8332584  0.3128156  0.1103188    0.00000       Uiso       1.00
      C423          C  0.8474575  0.3901163  0.0226080    0.00000       Uiso       1.00
      C424          C  0.8481991  0.3907051  0.0502594    0.00000       Uiso       1.00
      C425          C  0.8515491  0.4165243  0.0782592    0.00000       Uiso       1.00
      C426          C  0.8510180  0.4172038  0.1053619    0.00000       Uiso       1.00
      C427          C  0.8453168  0.3928493  0.1045853    0.00000       Uiso       1.00
      C428          C  0.8412960  0.3673918  0.0758958    0.00000       Uiso       1.00
      C429          C  0.8449779  0.3646966  0.0493916    0.00000       Uiso       1.00
       O18          O  0.8497469  0.4138067  0.0192933    0.00000       Uiso       1.00
      H244          H  0.8547104  0.4361588  0.0790658    0.00000       Uiso       1.00
      H245          H  0.8548629  0.4371187  0.1266642    0.00000       Uiso       1.00
      H246          H  0.8334067  0.3504361  0.0734771    0.00000       Uiso       1.00
        B7          B  0.8467658  0.4004873  0.9859542    0.00000       Uiso       1.00
        B8          B  0.8467410  0.4003148  0.2612799    0.00000       Uiso       1.00
        B9          B  0.8467715  0.1249721  0.9857798    0.00000       Uiso       1.00
       N10          N  0.7549219  0.7549222  0.5861266    0.00000       Uiso       1.00
      C430          C  0.7390165  0.7854801  0.6007906    0.00000       Uiso       1.00
      C431          C  0.7854797  0.7854803  0.6472541    0.00000       Uiso       1.00
       N11          N  0.7549219  0.8001441  0.6313485    0.00000       Uiso       1.00
       N12          N  0.8001437  0.7549223  0.6313485    0.00000       Uiso       1.00
      C432          C  0.7854798  0.7390167  0.6007906    0.00000       Uiso       1.00
      C433          C  0.3652630  0.8434172  0.2137044    0.00000       Uiso       1.00
      C434          C  0.3384010  0.8417984  0.1866450    0.00000       Uiso       1.00
      C435          C  0.3126190  0.8386523  0.1857847    0.00000       Uiso       1.00
      C436          C  0.2852997  0.8386664  0.1590409    0.00000       Uiso       1.00
      C437          C  0.2824340  0.8436202  0.1331733    0.00000       Uiso       1.00
      C438          C  0.3085365  0.8472211  0.1347469    0.00000       Uiso       1.00
      C439          C  0.3373479  0.8441243  0.1600308    0.00000       Uiso       1.00
       O19          O  0.3695734  0.8427386  0.2420786    0.00000       Uiso       1.00
      H247          H  0.3137678  0.8361515  0.2059824    0.00000       Uiso       1.00
      H248          H  0.2664971  0.8351087  0.1591564    0.00000       Uiso       1.00
      H249          H  0.3058278  0.8544770  0.1171662    0.00000       Uiso       1.00
      C440          C  0.3913009  0.8433343  0.0209727    0.00000       Uiso       1.00
      C441          C  0.3927259  0.8416966  0.0478278    0.00000       Uiso       1.00
      C442          C  0.4207874  0.8385661  0.0736198    0.00000       Uiso       1.00
      C443          C  0.4213406  0.8385894  0.1009402    0.00000       Uiso       1.00
      C444          C  0.3933820  0.8435451  0.1038014    0.00000       Uiso       1.00
      C445          C  0.3652625  0.8471149  0.0776803    0.00000       Uiso       1.00
      C446          C  0.3648425  0.8440049  0.0488684    0.00000       Uiso       1.00
       O20          O  0.4160354  0.8426985  0.0166849    0.00000       Uiso       1.00
      H250          H  0.4423355  0.8360862  0.0724881    0.00000       Uiso       1.00
      H251          H  0.4438125  0.8350472  0.1197494    0.00000       Uiso       1.00
      H252          H  0.3431290  0.8543683  0.0803708    0.00000       Uiso       1.00
      C447          C  0.1725938  0.8433635  0.9949866    0.00000       Uiso       1.00
      C448          C  0.1996662  0.8417016  0.9935551    0.00000       Uiso       1.00
      C449          C  0.2005318  0.8385272  0.9654788    0.00000       Uiso       1.00
      C450          C  0.2272862  0.8385112  0.9649053    0.00000       Uiso       1.00
      C451          C  0.2531578  0.8434623  0.9928587    0.00000       Uiso       1.00
      C452          C  0.2515829  0.8470740  0.0209949    0.00000       Uiso       1.00
      C453          C  0.2262814  0.8440174  0.0214375    0.00000       Uiso       1.00
       O21          O  0.1442215  0.8426906  0.9702425    0.00000       Uiso       1.00
      H253          H  0.1803203  0.8360437  0.9439380    0.00000       Uiso       1.00
      H254          H  0.2271700  0.8349460  0.9424258    0.00000       Uiso       1.00
      H255          H  0.2691706  0.8543185  0.0431207    0.00000       Uiso       1.00
      C454          C  0.1713072  0.8474563  0.0226259    0.00000       Uiso       1.00
      C455          C  0.1976229  0.8482061  0.0502851    0.00000       Uiso       1.00
      C456          C  0.1964278  0.8516333  0.0783051    0.00000       Uiso       1.00
      C457          C  0.2233747  0.8511277  0.1054184    0.00000       Uiso       1.00
      C458          C  0.2526667  0.8453572  0.1046257    0.00000       Uiso       1.00
      C459          C  0.2534851  0.8412505  0.0759191    0.00000       Uiso       1.00
      C460          C  0.2260050  0.8449240  0.0494049    0.00000       Uiso       1.00
       O22          O  0.1419953  0.8497897  0.0193140    0.00000       Uiso       1.00
      H256          H  0.1744319  0.8548295  0.0791216    0.00000       Uiso       1.00
      H257          H  0.2209089  0.8550403  0.1267420    0.00000       Uiso       1.00
      H258          H  0.2759230  0.8333222  0.0735102    0.00000       Uiso       1.00
      C461          C  0.3636718  0.8473741  0.9961162    0.00000       Uiso       1.00
      C462          C  0.3360220  0.8480948  0.9955139    0.00000       Uiso       1.00
      C463          C  0.3080162  0.8514541  0.9696987    0.00000       Uiso       1.00
      C464          C  0.2809140  0.8509275  0.9690257    0.00000       Uiso       1.00
      C465          C  0.2816990  0.8452099  0.9933717    0.00000       Uiso       1.00
      C466          C  0.3103934  0.8411659  0.0188133    0.00000       Uiso       1.00
      C467          C  0.3368941  0.8448552  0.0215133    0.00000       Uiso       1.00
       O23          O  0.3669845  0.8496981  0.9724452    0.00000       Uiso       1.00
      H259          H  0.3071974  0.8546279  0.9500663    0.00000       Uiso       1.00
      H260          H  0.2596025  0.8547929  0.9491243    0.00000       Uiso       1.00
      H261          H  0.3128176  0.8332607  0.0357573    0.00000       Uiso       1.00
      C468          C  0.3901179  0.8474595  0.2149675    0.00000       Uiso       1.00
      C469          C  0.3907068  0.8482011  0.1886466    0.00000       Uiso       1.00
      C470          C  0.4165260  0.8515512  0.1898161    0.00000       Uiso       1.00
      C471          C  0.4172057  0.8510202  0.1628618    0.00000       Uiso       1.00
      C472          C  0.3928512  0.8453190  0.1335828    0.00000       Uiso       1.00
      C473          C  0.3673937  0.8412982  0.1327939    0.00000       Uiso       1.00
      C474          C  0.3646985  0.8449799  0.1602848    0.00000       Uiso       1.00
       O24          O  0.4138083  0.8497488  0.2442621    0.00000       Uiso       1.00
      H262          H  0.4361606  0.8547125  0.2118053    0.00000       Uiso       1.00
      H263          H  0.4371207  0.8548651  0.1653195    0.00000       Uiso       1.00
      H264          H  0.3504380  0.8334089  0.1103676    0.00000       Uiso       1.00
       B10          B  0.4004883  0.8467671  0.2613004    0.00000       Uiso       1.00
       B11          B  0.4003178  0.8467442  0.9857793    0.00000       Uiso       1.00
       B12          B  0.1249741  0.8467737  0.9859666    0.00000       Uiso       1.00
