data_40
_audit_creation_date              0000-00-00
_audit_creation_method            'LanYouShi'
_symmetry_space_group_name_H-M    'P1'
_cell_length_a                    45.0443993
_cell_length_b                    45.0443993
_cell_length_c                    45.0443993
_cell_angle_alpha                 90.0000000
_cell_angle_beta                  90.0000000
_cell_angle_gamma                 90.0000000
loop_
_atom_site_label
_atom_site_type_symbol
_atom_site_fract_x
_atom_site_fract_y
_atom_site_fract_z
_atom_site_U_iso_or_equiv
_atom_site_adp_type
_atom_site_occupancy
        C1          C  0.5979876  0.4020110  0.3644432    0.00000       Uiso       1.00
        C2          C  0.5714557  0.3907186  0.3759058    0.00000       Uiso       1.00
        C3          C  0.5563675  0.4057752  0.3984466    0.00000       Uiso       1.00
        C4          C  0.6092800  0.4285429  0.3759057    0.00000       Uiso       1.00
        C5          C  0.5942234  0.4436311  0.3984465    0.00000       Uiso       1.00
        C6          C  0.5678869  0.4321117  0.4111450    0.00000       Uiso       1.00
        H1          H  0.4648164  0.3969929  0.5945361    0.00000       Uiso       1.00
        H2          H  0.6030062  0.5351828  0.5945356    0.00000       Uiso       1.00
        H3          H  0.6309311  0.4380322  0.3668672    0.00000       Uiso       1.00
        H4          H  0.5619664  0.3690674  0.3668674    0.00000       Uiso       1.00
        C7          C  0.4020111  0.4020119  0.6355571    0.00000       Uiso       1.00
        C8          C  0.4285430  0.3907194  0.6240944    0.00000       Uiso       1.00
        C9          C  0.4436312  0.4057759  0.6015536    0.00000       Uiso       1.00
       C10          C  0.3907187  0.4285437  0.6240942    0.00000       Uiso       1.00
       C11          C  0.4057753  0.4436318  0.6015534    0.00000       Uiso       1.00
       C12          C  0.4321117  0.4321123  0.5888550    0.00000       Uiso       1.00
        H5          H  0.5351823  0.3969922  0.4054641    0.00000       Uiso       1.00
        H6          H  0.3969924  0.5351822  0.4054636    0.00000       Uiso       1.00
        H7          H  0.3690675  0.4380331  0.6331327    0.00000       Uiso       1.00
        H8          H  0.4380323  0.3690683  0.6331330    0.00000       Uiso       1.00
       C13          C  0.5979874  0.5979881  0.6355565    0.00000       Uiso       1.00
       C14          C  0.5714555  0.6092806  0.6240938    0.00000       Uiso       1.00
       C15          C  0.5563673  0.5942239  0.6015530    0.00000       Uiso       1.00
       C16          C  0.6092798  0.5714562  0.6240939    0.00000       Uiso       1.00
       C17          C  0.5942232  0.5563680  0.6015532    0.00000       Uiso       1.00
       C18          C  0.5678868  0.5678874  0.5888546    0.00000       Uiso       1.00
        H9          H  0.4648165  0.6030062  0.4054634    0.00000       Uiso       1.00
       H10          H  0.6030064  0.4648163  0.4054640    0.00000       Uiso       1.00
       H11          H  0.6309309  0.5619670  0.6331325    0.00000       Uiso       1.00
       H12          H  0.5619661  0.6309317  0.6331322    0.00000       Uiso       1.00
       C19          C  0.4020113  0.5979872  0.3644423    0.00000       Uiso       1.00
       C20          C  0.4285432  0.6092798  0.3759050    0.00000       Uiso       1.00
       C21          C  0.4436313  0.5942232  0.3984458    0.00000       Uiso       1.00
       C22          C  0.3907189  0.5714554  0.3759051    0.00000       Uiso       1.00
       C23          C  0.4057755  0.5563673  0.3984459    0.00000       Uiso       1.00
       C24          C  0.4321119  0.5678868  0.4111444    0.00000       Uiso       1.00
       H13          H  0.5351822  0.6030069  0.5945354    0.00000       Uiso       1.00
       H14          H  0.3969923  0.4648170  0.5945358    0.00000       Uiso       1.00
       C25          C  0.4999992  0.4999994  0.4999998    0.00000       Uiso       1.00
       H15          H  0.3690678  0.5619660  0.3668666    0.00000       Uiso       1.00
       H16          H  0.4380325  0.6309308  0.3668664    0.00000       Uiso       1.00
       C26          C  0.5514877  0.4488279  0.4346157    0.00000       Uiso       1.00
       C27          C  0.5344316  0.4338877  0.4560273    0.00000       Uiso       1.00
       C28          C  0.5183838  0.4496619  0.4774957    0.00000       Uiso       1.00
       C29          C  0.5523527  0.4800111  0.4355100    0.00000       Uiso       1.00
       C30          C  0.5369222  0.4957185  0.4572778    0.00000       Uiso       1.00
       C31          C  0.5196099  0.4810217  0.4788642    0.00000       Uiso       1.00
       H17          H  0.5197555  0.4622678  0.5431510    0.00000       Uiso       1.00
       H18          H  0.5630668  0.5045194  0.5076836    0.00000       Uiso       1.00
       H19          H  0.5642017  0.4925659  0.4188312    0.00000       Uiso       1.00
       H20          H  0.5332969  0.4098845  0.4561018    0.00000       Uiso       1.00
       C32          C  0.4488273  0.4485126  0.5653852    0.00000       Uiso       1.00
       C33          C  0.4800102  0.4476533  0.5644960    0.00000       Uiso       1.00
       C34          C  0.4957188  0.4630803  0.5427258    0.00000       Uiso       1.00
       C35          C  0.4338870  0.4655635  0.5439699    0.00000       Uiso       1.00
       C36          C  0.4496619  0.4816117  0.5225023    0.00000       Uiso       1.00
       C37          C  0.4810221  0.4803890  0.5211363    0.00000       Uiso       1.00
       H21          H  0.5045174  0.4369325  0.4923150    0.00000       Uiso       1.00
       H22          H  0.4622656  0.4802436  0.4568514    0.00000       Uiso       1.00
       H23          H  0.4098834  0.4666913  0.5438893    0.00000       Uiso       1.00
       H24          H  0.4925613  0.4358086  0.5811802    0.00000       Uiso       1.00
       C38          C  0.5511714  0.5514864  0.5653848    0.00000       Uiso       1.00
       C39          C  0.5199883  0.5523498  0.5644919    0.00000       Uiso       1.00
       C40          C  0.5042800  0.5369211  0.5427227    0.00000       Uiso       1.00
       C41          C  0.5661117  0.5344303  0.5439730    0.00000       Uiso       1.00
       C42          C  0.5503368  0.5183831  0.5225050    0.00000       Uiso       1.00
       C43          C  0.5189767  0.5196095  0.5211359    0.00000       Uiso       1.00
       H25          H  0.4954801  0.5630676  0.4923147    0.00000       Uiso       1.00
       H26          H  0.5377337  0.5197556  0.4568527    0.00000       Uiso       1.00
       H27          H  0.5901151  0.5332967  0.5438942    0.00000       Uiso       1.00
       H28          H  0.5074362  0.5642005  0.5811713    0.00000       Uiso       1.00
       C44          C  0.4485125  0.5511717  0.4346147    0.00000       Uiso       1.00
       C45          C  0.4655675  0.5661120  0.4560272    0.00000       Uiso       1.00
       C46          C  0.4816151  0.5503373  0.4774949    0.00000       Uiso       1.00
       C47          C  0.4476502  0.5199888  0.4355068    0.00000       Uiso       1.00
       C48          C  0.4630785  0.5042804  0.4572759    0.00000       Uiso       1.00
       C49          C  0.4803890  0.5189773  0.4788634    0.00000       Uiso       1.00
       H29          H  0.4802431  0.5377355  0.5431451    0.00000       Uiso       1.00
       H30          H  0.4369326  0.4954737  0.5076786    0.00000       Uiso       1.00
       H31          H  0.4358021  0.5074369  0.4188255    0.00000       Uiso       1.00
       H32          H  0.4667006  0.5901153  0.4561056    0.00000       Uiso       1.00
       C50          C  0.1355564  0.5979897  0.0979877    0.00000       Uiso       1.00
       C51          C  0.1240937  0.5714579  0.1092803    0.00000       Uiso       1.00
       C52          C  0.1015529  0.5563697  0.0942237    0.00000       Uiso       1.00
       C53          C  0.1240937  0.6092821  0.0714558    0.00000       Uiso       1.00
       C54          C  0.1015529  0.5942254  0.0563677    0.00000       Uiso       1.00
       C55          C  0.0888544  0.5678890  0.0678872    0.00000       Uiso       1.00
       H33          H  0.9054624  0.4648187  0.1030069    0.00000       Uiso       1.00
       H34          H  0.9054625  0.6030082  0.9648163    0.00000       Uiso       1.00
       H35          H  0.1331322  0.6309332  0.0619664    0.00000       Uiso       1.00
       H36          H  0.1331322  0.5619686  0.1309314    0.00000       Uiso       1.00
       C56          C  0.8644413  0.4020135  0.0979882    0.00000       Uiso       1.00
       C57          C  0.8759040  0.4285454  0.1092806    0.00000       Uiso       1.00
       C58          C  0.8984449  0.4436335  0.0942239    0.00000       Uiso       1.00
       C59          C  0.8759040  0.3907210  0.0714563    0.00000       Uiso       1.00
       C60          C  0.8984449  0.4057775  0.0563682    0.00000       Uiso       1.00
       C61          C  0.9111434  0.4321139  0.0678875    0.00000       Uiso       1.00
       H37          H  0.0945353  0.5351845  0.1030068    0.00000       Uiso       1.00
       H38          H  0.0945354  0.3969941  0.9648172    0.00000       Uiso       1.00
       H39          H  0.8668656  0.3690698  0.0619671    0.00000       Uiso       1.00
       H40          H  0.8668655  0.4380348  0.1309316    0.00000       Uiso       1.00
       C62          C  0.8644415  0.5979891  0.9020110    0.00000       Uiso       1.00
       C63          C  0.8759042  0.5714571  0.8907188    0.00000       Uiso       1.00
       C64          C  0.8984450  0.5563690  0.9057754    0.00000       Uiso       1.00
       C65          C  0.8759042  0.6092816  0.9285430    0.00000       Uiso       1.00
       C66          C  0.8984450  0.5942250  0.9436312    0.00000       Uiso       1.00
       C67          C  0.9111434  0.5678886  0.9321118    0.00000       Uiso       1.00
       H41          H  0.0945355  0.4648180  0.8969928    0.00000       Uiso       1.00
       H42          H  0.0945354  0.6030084  0.0351825    0.00000       Uiso       1.00
       H43          H  0.8668657  0.6309327  0.9380322    0.00000       Uiso       1.00
       H44          H  0.8668657  0.5619677  0.8690676    0.00000       Uiso       1.00
       C68          C  0.1355565  0.4020128  0.9020120    0.00000       Uiso       1.00
       C69          C  0.1240939  0.4285447  0.8907194    0.00000       Uiso       1.00
       C70          C  0.1015531  0.4436328  0.9057759    0.00000       Uiso       1.00
       C71          C  0.1240938  0.3907205  0.9285439    0.00000       Uiso       1.00
       C72          C  0.1015530  0.4057771  0.9436320    0.00000       Uiso       1.00
       C73          C  0.0888545  0.4321135  0.9321125    0.00000       Uiso       1.00
       H45          H  0.9054626  0.5351838  0.8969925    0.00000       Uiso       1.00
       H46          H  0.9054624  0.3969944  0.0351830    0.00000       Uiso       1.00
       C74          C  0.9999984  0.5000012  0.0000000    0.00000       Uiso       1.00
       H47          H  0.1331323  0.3690694  0.9380333    0.00000       Uiso       1.00
       H48          H  0.1331324  0.4380339  0.8690683    0.00000       Uiso       1.00
       C75          C  0.0653837  0.5514898  0.0511712    0.00000       Uiso       1.00
       C76          C  0.0439721  0.5344337  0.0661115    0.00000       Uiso       1.00
       C77          C  0.0225036  0.5183859  0.0503374    0.00000       Uiso       1.00
       C78          C  0.0644893  0.5523547  0.0199880    0.00000       Uiso       1.00
       C79          C  0.0427214  0.5369241  0.0042806    0.00000       Uiso       1.00
       C80          C  0.0211350  0.5196119  0.0189775    0.00000       Uiso       1.00
       H49          H  0.9568473  0.5197576  0.0377317    0.00000       Uiso       1.00
       H50          H  0.9923146  0.5630687  0.9954796    0.00000       Uiso       1.00
       H51          H  0.0811680  0.5642036  0.0074331    0.00000       Uiso       1.00
       H52          H  0.0438976  0.5332991  0.0901147    0.00000       Uiso       1.00
       C81          C  0.9346131  0.4488295  0.0514871    0.00000       Uiso       1.00
       C82          C  0.9355024  0.4800124  0.0523464    0.00000       Uiso       1.00
       C83          C  0.9572725  0.4957209  0.0369192    0.00000       Uiso       1.00
       C84          C  0.9560283  0.4338891  0.0344363    0.00000       Uiso       1.00
       C85          C  0.9774959  0.4496639  0.0183879    0.00000       Uiso       1.00
       C86          C  0.9788619  0.4810241  0.0196105    0.00000       Uiso       1.00
       H53          H  0.0076844  0.5045195  0.0630668    0.00000       Uiso       1.00
       H54          H  0.0431478  0.4622676  0.0197559    0.00000       Uiso       1.00
       H55          H  0.9561089  0.4098854  0.0333085    0.00000       Uiso       1.00
       H56          H  0.9188182  0.4925635  0.0641910    0.00000       Uiso       1.00
       C87          C  0.9346133  0.5511732  0.9485128    0.00000       Uiso       1.00
       C88          C  0.9355062  0.5199901  0.9476495    0.00000       Uiso       1.00
       C89          C  0.9572754  0.5042818  0.9630782    0.00000       Uiso       1.00
       C90          C  0.9560252  0.5661135  0.9655688    0.00000       Uiso       1.00
       C91          C  0.9774932  0.5503387  0.9816160    0.00000       Uiso       1.00
       C92          C  0.9788622  0.5189786  0.9803897    0.00000       Uiso       1.00
       H57          H  0.0076843  0.4954818  0.9369316    0.00000       Uiso       1.00
       H58          H  0.0431465  0.5377355  0.9802434    0.00000       Uiso       1.00
       H59          H  0.9561040  0.5901170  0.9667023    0.00000       Uiso       1.00
       H60          H  0.9188268  0.5074379  0.9357990    0.00000       Uiso       1.00
       C93          C  0.0653843  0.4485142  0.9488275    0.00000       Uiso       1.00
       C94          C  0.0439718  0.4655691  0.9338872    0.00000       Uiso       1.00
       C95          C  0.0225042  0.4816169  0.9496619    0.00000       Uiso       1.00
       C96          C  0.0644923  0.4476520  0.9800104    0.00000       Uiso       1.00
       C97          C  0.0427232  0.4630803  0.9957188    0.00000       Uiso       1.00
       C98          C  0.0211357  0.4803908  0.9810219    0.00000       Uiso       1.00
       H61          H  0.9568530  0.4802449  0.9622638    0.00000       Uiso       1.00
       H62          H  0.9923196  0.4369345  0.0045259    0.00000       Uiso       1.00
       H63          H  0.0811736  0.4358039  0.9925623    0.00000       Uiso       1.00
       H64          H  0.0438933  0.4667021  0.9098840    0.00000       Uiso       1.00
       C99          C  0.4020109  0.1355585  0.9020089    0.00000       Uiso       1.00
      C100          C  0.3907184  0.1240958  0.9285409    0.00000       Uiso       1.00
      C101          C  0.4057750  0.1015551  0.9436290    0.00000       Uiso       1.00
      C102          C  0.4285428  0.1240957  0.8907166    0.00000       Uiso       1.00
      C103          C  0.4436309  0.1015550  0.9057732    0.00000       Uiso       1.00
      C104          C  0.4321115  0.0888566  0.9321097    0.00000       Uiso       1.00
       H65          H  0.3969919  0.9054649  0.0351809    0.00000       Uiso       1.00
       H66          H  0.5351819  0.9054645  0.8969909    0.00000       Uiso       1.00
       H67          H  0.4380321  0.1331342  0.8690653    0.00000       Uiso       1.00
       H68          H  0.3690673  0.1331344  0.9380301    0.00000       Uiso       1.00
      C105          C  0.4020107  0.8644440  0.0979863    0.00000       Uiso       1.00
      C106          C  0.3907183  0.8759066  0.0714543    0.00000       Uiso       1.00
      C107          C  0.4057750  0.8984474  0.0563661    0.00000       Uiso       1.00
      C108          C  0.4285426  0.8759068  0.1092787    0.00000       Uiso       1.00
      C109          C  0.4436308  0.8984476  0.0942220    0.00000       Uiso       1.00
      C110          C  0.4321114  0.9111460  0.0678855    0.00000       Uiso       1.00
       H69          H  0.3969920  0.0945376  0.9648142    0.00000       Uiso       1.00
       H70          H  0.5351818  0.0945381  0.1030045    0.00000       Uiso       1.00
       H71          H  0.4380319  0.8668684  0.1309299    0.00000       Uiso       1.00
       H72          H  0.3690672  0.8668681  0.0619650    0.00000       Uiso       1.00
      C111          C  0.5979872  0.8644434  0.9020100    0.00000       Uiso       1.00
      C112          C  0.6092796  0.8759062  0.9285419    0.00000       Uiso       1.00
      C113          C  0.5942230  0.8984471  0.9436299    0.00000       Uiso       1.00
      C114          C  0.5714552  0.8759061  0.8907175    0.00000       Uiso       1.00
      C115          C  0.5563671  0.8984469  0.9057740    0.00000       Uiso       1.00
      C116          C  0.5678865  0.9111454  0.9321104    0.00000       Uiso       1.00
       H73          H  0.6030059  0.0945378  0.0351804    0.00000       Uiso       1.00
       H74          H  0.4648161  0.0945374  0.8969902    0.00000       Uiso       1.00
       H75          H  0.5619659  0.8668674  0.8690664    0.00000       Uiso       1.00
       H76          H  0.6309307  0.8668677  0.9380312    0.00000       Uiso       1.00
      C117          C  0.5979870  0.1355591  0.0979855    0.00000       Uiso       1.00
      C118          C  0.6092795  0.1240963  0.0714536    0.00000       Uiso       1.00
      C119          C  0.5942229  0.1015555  0.0563656    0.00000       Uiso       1.00
      C120          C  0.5714551  0.1240965  0.1092780    0.00000       Uiso       1.00
      C121          C  0.5563669  0.1015556  0.0942214    0.00000       Uiso       1.00
      C122          C  0.5678864  0.0888570  0.0678850    0.00000       Uiso       1.00
       H77          H  0.6030060  0.9054647  0.9648151    0.00000       Uiso       1.00
       H78          H  0.4648159  0.9054651  0.1030050    0.00000       Uiso       1.00
      C123          C  0.4999988  0.0000017  0.9999976    0.00000       Uiso       1.00
       H79          H  0.5619658  0.1331351  0.1309291    0.00000       Uiso       1.00
       H80          H  0.6309306  0.1331348  0.0619643    0.00000       Uiso       1.00
      C124          C  0.4488275  0.0653859  0.9485090    0.00000       Uiso       1.00
      C125          C  0.4338872  0.0439744  0.9655651    0.00000       Uiso       1.00
      C126          C  0.4496613  0.0225059  0.9816130    0.00000       Uiso       1.00
      C127          C  0.4800107  0.0644915  0.9476439    0.00000       Uiso       1.00
      C128          C  0.4957181  0.0427236  0.9630746    0.00000       Uiso       1.00
      C129          C  0.4810212  0.0211373  0.9803869    0.00000       Uiso       1.00
       H81          H  0.4622671  0.9568496  0.9802415    0.00000       Uiso       1.00
       H82          H  0.5045188  0.9923167  0.9369302    0.00000       Uiso       1.00
       H83          H  0.4925656  0.0811701  0.9357950    0.00000       Uiso       1.00
       H84          H  0.4098841  0.0438999  0.9666998    0.00000       Uiso       1.00
      C130          C  0.4485117  0.9346157  0.0511699    0.00000       Uiso       1.00
      C131          C  0.4476524  0.9355048  0.0199870    0.00000       Uiso       1.00
      C132          C  0.4630795  0.9572748  0.0042783    0.00000       Uiso       1.00
      C133          C  0.4655627  0.9560309  0.0661102    0.00000       Uiso       1.00
      C134          C  0.4816110  0.9774985  0.0503353    0.00000       Uiso       1.00
      C135          C  0.4803883  0.9788643  0.0189750    0.00000       Uiso       1.00
       H85          H  0.4369320  0.0076867  0.9954795    0.00000       Uiso       1.00
       H86          H  0.4802431  0.0431503  0.0377314    0.00000       Uiso       1.00
       H87          H  0.4666905  0.9561116  0.0901138    0.00000       Uiso       1.00
       H88          H  0.4358077  0.9188206  0.0074360    0.00000       Uiso       1.00
      C136          C  0.5514856  0.9346154  0.9488257    0.00000       Uiso       1.00
      C137          C  0.5523490  0.9355084  0.9800088    0.00000       Uiso       1.00
      C138          C  0.5369204  0.9572776  0.9957171    0.00000       Uiso       1.00
      C139          C  0.5344296  0.9560272  0.9338853    0.00000       Uiso       1.00
      C140          C  0.5183825  0.9774953  0.9496601    0.00000       Uiso       1.00
      C141          C  0.5196089  0.9788646  0.9810203    0.00000       Uiso       1.00
       H89          H  0.5630670  0.0076866  0.0045171    0.00000       Uiso       1.00
       H90          H  0.5197551  0.0431486  0.9622631    0.00000       Uiso       1.00
       H91          H  0.5332960  0.9561059  0.9098819    0.00000       Uiso       1.00
       H92          H  0.5641996  0.9188290  0.9925610    0.00000       Uiso       1.00
      C142          C  0.5511712  0.0653867  0.0514845    0.00000       Uiso       1.00
      C143          C  0.5661116  0.0439742  0.0344296    0.00000       Uiso       1.00
      C144          C  0.5503368  0.0225065  0.0183820    0.00000       Uiso       1.00
      C145          C  0.5199883  0.0644948  0.0523468    0.00000       Uiso       1.00
      C146          C  0.5042799  0.0427256  0.0369185    0.00000       Uiso       1.00
      C147          C  0.5189767  0.0211380  0.0196081    0.00000       Uiso       1.00
       H93          H  0.5377347  0.9568554  0.0197541    0.00000       Uiso       1.00
       H94          H  0.4954731  0.9923221  0.0630645    0.00000       Uiso       1.00
       H95          H  0.5074365  0.0811761  0.0641948    0.00000       Uiso       1.00
       H96          H  0.5901148  0.0438957  0.0332965    0.00000       Uiso       1.00
      C148          C  0.6446815  0.6234737  0.6983294    0.00000       Uiso       1.00
      C149          C  0.6678845  0.6236346  0.7190558    0.00000       Uiso       1.00
      C150          C  0.6914520  0.6033311  0.7171935    0.00000       Uiso       1.00
      C151          C  0.7136973  0.6028623  0.7389930    0.00000       Uiso       1.00
      C152          C  0.7119961  0.6216018  0.7641028    0.00000       Uiso       1.00
      C153          C  0.6877970  0.6415854  0.7657545    0.00000       Uiso       1.00
      C154          C  0.6668478  0.6444590  0.7426329    0.00000       Uiso       1.00
        O1          O  0.6417226  0.6038690  0.6746605    0.00000       Uiso       1.00
       H97          H  0.6925535  0.5878120  0.6987014    0.00000       Uiso       1.00
       H98          H  0.7319140  0.5874500  0.7360005    0.00000       Uiso       1.00
       H99          H  0.6840926  0.6537014  0.7859885    0.00000       Uiso       1.00
      C155          C  0.6235365  0.8017036  0.8552779    0.00000       Uiso       1.00
      C156          C  0.6237098  0.7809858  0.8320652    0.00000       Uiso       1.00
      C157          C  0.6033987  0.7828346  0.8085023    0.00000       Uiso       1.00
      C158          C  0.6029290  0.7610278  0.7862638    0.00000       Uiso       1.00
      C159          C  0.6216692  0.7359191  0.7879701    0.00000       Uiso       1.00
      C160          C  0.6416696  0.7342911  0.8121591    0.00000       Uiso       1.00
      C161          C  0.6445456  0.7574219  0.8330981    0.00000       Uiso       1.00
        O2          O  0.6039037  0.8253477  0.8582531    0.00000       Uiso       1.00
      H100          H  0.5878640  0.8013118  0.8074039    0.00000       Uiso       1.00
      H101          H  0.5875070  0.7640116  0.7680542    0.00000       Uiso       1.00
      H102          H  0.6537923  0.7140672  0.8158764    0.00000       Uiso       1.00
      C162          C  0.8016922  0.6446961  0.8764733    0.00000       Uiso       1.00
      C163          C  0.7809905  0.6679180  0.8762854    0.00000       Uiso       1.00
      C164          C  0.7828716  0.6914967  0.8965727    0.00000       Uiso       1.00
      C165          C  0.7610881  0.7137605  0.8970269    0.00000       Uiso       1.00
      C166          C  0.7359771  0.7120643  0.8782871    0.00000       Uiso       1.00
      C167          C  0.7343167  0.6878586  0.8583070    0.00000       Uiso       1.00
      C168          C  0.7574197  0.6668852  0.8554563    0.00000       Uiso       1.00
        O3          O  0.8253552  0.6417403  0.8960839    0.00000       Uiso       1.00
      H103          H  0.8013610  0.6925797  0.9120985    0.00000       Uiso       1.00
      H104          H  0.7640873  0.7319797  0.9124361    0.00000       Uiso       1.00
      H105          H  0.7140861  0.6841614  0.8461833    0.00000       Uiso       1.00
      C169          C  0.7994050  0.6211302  0.8572900    0.00000       Uiso       1.00
      C170          C  0.7773550  0.6200355  0.8353672    0.00000       Uiso       1.00
      C171          C  0.7755365  0.5962341  0.8153317    0.00000       Uiso       1.00
      C172          C  0.7539950  0.5960985  0.7928308    0.00000       Uiso       1.00
      C173          C  0.7348323  0.6206083  0.7887754    0.00000       Uiso       1.00
      C174          C  0.7375112  0.6446620  0.8088166    0.00000       Uiso       1.00
      C175          C  0.7569063  0.6438751  0.8334102    0.00000       Uiso       1.00
        O4          O  0.8213841  0.5999482  0.8618892    0.00000       Uiso       1.00
      H106          H  0.7908524  0.5776492  0.8172705    0.00000       Uiso       1.00
      H107          H  0.7528163  0.5767175  0.7786463    0.00000       Uiso       1.00
      H108          H  0.7256904  0.6649044  0.8043200    0.00000       Uiso       1.00
      C176          C  0.6427554  0.7994451  0.8788198    0.00000       Uiso       1.00
      C177          C  0.6646944  0.7774099  0.8798977    0.00000       Uiso       1.00
      C178          C  0.6847737  0.7756252  0.9036658    0.00000       Uiso       1.00
      C179          C  0.7072826  0.7540936  0.9037851    0.00000       Uiso       1.00
      C180          C  0.7113011  0.7348987  0.8792928    0.00000       Uiso       1.00
      C181          C  0.6912176  0.7375484  0.8552709    0.00000       Uiso       1.00
      C182          C  0.6666222  0.7569385  0.8560767    0.00000       Uiso       1.00
        O5          O  0.6381633  0.8214285  0.8999975    0.00000       Uiso       1.00
      H109          H  0.6828552  0.7909525  0.9222458    0.00000       Uiso       1.00
      H110          H  0.7214959  0.7529448  0.9231478    0.00000       Uiso       1.00
      H111          H  0.6956829  0.7257192  0.8350266    0.00000       Uiso       1.00
      C183          C  0.6211392  0.6426937  0.7005936    0.00000       Uiso       1.00
      C184          C  0.6200553  0.6646169  0.7226411    0.00000       Uiso       1.00
      C185          C  0.5962913  0.6846989  0.7244175    0.00000       Uiso       1.00
      C186          C  0.5961704  0.7072120  0.7459441    0.00000       Uiso       1.00
      C187          C  0.6206564  0.7112240  0.7651529    0.00000       Uiso       1.00
      C188          C  0.6446722  0.6911266  0.7625198    0.00000       Uiso       1.00
      C189          C  0.6438684  0.6665343  0.7431229    0.00000       Uiso       1.00
        O6          O  0.5999737  0.6381280  0.6785927    0.00000       Uiso       1.00
      H112          H  0.5777198  0.6827804  0.7090786    0.00000       Uiso       1.00
      H113          H  0.5768134  0.7214342  0.7470743    0.00000       Uiso       1.00
      H114          H  0.6649131  0.6955836  0.7743630    0.00000       Uiso       1.00
        B1          B  0.6132546  0.6133952  0.6622826    0.00000       Uiso       1.00
        B2          B  0.6134136  0.8377216  0.8867278    0.00000       Uiso       1.00
        B3          B  0.8377092  0.6132493  0.8866003    0.00000       Uiso       1.00
      C190          C  0.3553169  0.3765268  0.6983301    0.00000       Uiso       1.00
      C191          C  0.3321138  0.3763660  0.7190564    0.00000       Uiso       1.00
      C192          C  0.3085464  0.3966695  0.7171939    0.00000       Uiso       1.00
      C193          C  0.2863010  0.3971385  0.7389934    0.00000       Uiso       1.00
      C194          C  0.2880021  0.3783990  0.7641034    0.00000       Uiso       1.00
      C195          C  0.3122013  0.3584156  0.7657552    0.00000       Uiso       1.00
      C196          C  0.3331506  0.3555418  0.7426335    0.00000       Uiso       1.00
        O7          O  0.3582758  0.3961312  0.6746610    0.00000       Uiso       1.00
      H115          H  0.3074450  0.4121885  0.6987017    0.00000       Uiso       1.00
      H116          H  0.2680843  0.4125508  0.7360008    0.00000       Uiso       1.00
      H117          H  0.3159056  0.3462997  0.7859892    0.00000       Uiso       1.00
      C197          C  0.3764616  0.1982979  0.8552797    0.00000       Uiso       1.00
      C198          C  0.3762884  0.2190156  0.8320669    0.00000       Uiso       1.00
      C199          C  0.3965995  0.2171666  0.8085040    0.00000       Uiso       1.00
      C200          C  0.3970692  0.2389734  0.7862654    0.00000       Uiso       1.00
      C201          C  0.3783290  0.2640820  0.7879715    0.00000       Uiso       1.00
      C202          C  0.3583286  0.2657101  0.8121604    0.00000       Uiso       1.00
      C203          C  0.3554526  0.2425796  0.8330996    0.00000       Uiso       1.00
        O8          O  0.3960945  0.1746538  0.8582551    0.00000       Uiso       1.00
      H118          H  0.4121341  0.1986895  0.8074057    0.00000       Uiso       1.00
      H119          H  0.4124912  0.2359893  0.7680559    0.00000       Uiso       1.00
      H120          H  0.3462058  0.2859341  0.8158776    0.00000       Uiso       1.00
      C204          C  0.1983059  0.3553056  0.8764738    0.00000       Uiso       1.00
      C205          C  0.2190075  0.3320837  0.8762861    0.00000       Uiso       1.00
      C206          C  0.2171265  0.3085051  0.8965735    0.00000       Uiso       1.00
      C207          C  0.2389099  0.2862414  0.8970279    0.00000       Uiso       1.00
      C208          C  0.2640210  0.2879374  0.8782881    0.00000       Uiso       1.00
      C209          C  0.2656814  0.3121429  0.8583078    0.00000       Uiso       1.00
      C210          C  0.2425784  0.3331164  0.8554571    0.00000       Uiso       1.00
        O9          O  0.1746429  0.3582615  0.8960843    0.00000       Uiso       1.00
      H121          H  0.1986370  0.3074223  0.9120994    0.00000       Uiso       1.00
      H122          H  0.2359107  0.2680223  0.9124372    0.00000       Uiso       1.00
      H123          H  0.2859120  0.3158400  0.8461842    0.00000       Uiso       1.00
      C211          C  0.2005931  0.3788714  0.8572903    0.00000       Uiso       1.00
      C212          C  0.2226432  0.3799659  0.8353676    0.00000       Uiso       1.00
      C213          C  0.2244616  0.4037671  0.8153320    0.00000       Uiso       1.00
      C214          C  0.2460032  0.4039026  0.7928311    0.00000       Uiso       1.00
      C215          C  0.2651660  0.3793929  0.7887759    0.00000       Uiso       1.00
      C216          C  0.2624870  0.3553392  0.8088172    0.00000       Uiso       1.00
      C217          C  0.2430918  0.3561263  0.8334108    0.00000       Uiso       1.00
       O10          O  0.1786140  0.4000534  0.8618894    0.00000       Uiso       1.00
      H124          H  0.2091458  0.4223522  0.8172706    0.00000       Uiso       1.00
      H125          H  0.2471820  0.4232835  0.7786465    0.00000       Uiso       1.00
      H126          H  0.2743078  0.3350968  0.8043208    0.00000       Uiso       1.00
      C218          C  0.3572426  0.2005566  0.8788216    0.00000       Uiso       1.00
      C219          C  0.3353038  0.2225918  0.8798993    0.00000       Uiso       1.00
      C220          C  0.3152243  0.2243766  0.9036674    0.00000       Uiso       1.00
      C221          C  0.2927155  0.2459083  0.9037865    0.00000       Uiso       1.00
      C222          C  0.2886970  0.2651030  0.8792941    0.00000       Uiso       1.00
      C223          C  0.3087805  0.2624532  0.8552722    0.00000       Uiso       1.00
      C224          C  0.3333760  0.2430630  0.8560783    0.00000       Uiso       1.00
       O11          O  0.3618347  0.1785733  0.8999995    0.00000       Uiso       1.00
      H127          H  0.3171429  0.2090495  0.9222475    0.00000       Uiso       1.00
      H128          H  0.2785022  0.2470572  0.9231492    0.00000       Uiso       1.00
      H129          H  0.3043153  0.2742822  0.8350278    0.00000       Uiso       1.00
      C225          C  0.3788592  0.3573068  0.7005944    0.00000       Uiso       1.00
      C226          C  0.3799430  0.3353837  0.7226420    0.00000       Uiso       1.00
      C227          C  0.4037070  0.3153018  0.7244186    0.00000       Uiso       1.00
      C228          C  0.4038280  0.2927888  0.7459454    0.00000       Uiso       1.00
      C229          C  0.3793418  0.2887769  0.7651541    0.00000       Uiso       1.00
      C230          C  0.3553261  0.3088742  0.7625210    0.00000       Uiso       1.00
      C231          C  0.3561299  0.3334665  0.7431239    0.00000       Uiso       1.00
       O12          O  0.4000247  0.3618724  0.6785935    0.00000       Uiso       1.00
      H130          H  0.4222786  0.3172201  0.7090797    0.00000       Uiso       1.00
      H131          H  0.4231849  0.2785665  0.7470757    0.00000       Uiso       1.00
      H132          H  0.3350851  0.3044174  0.7743641    0.00000       Uiso       1.00
        B4          B  0.3867438  0.3866050  0.6622832    0.00000       Uiso       1.00
        B5          B  0.3865844  0.1622801  0.8867299    0.00000       Uiso       1.00
        B6          B  0.1622888  0.3867525  0.8866005    0.00000       Uiso       1.00
      C232          C  0.3553172  0.6234724  0.3016692    0.00000       Uiso       1.00
      C233          C  0.3321142  0.6236331  0.2809429    0.00000       Uiso       1.00
      C234          C  0.3085467  0.6033296  0.2828053    0.00000       Uiso       1.00
      C235          C  0.2863013  0.6028606  0.2610058    0.00000       Uiso       1.00
      C236          C  0.2880025  0.6216001  0.2358958    0.00000       Uiso       1.00
      C237          C  0.3122017  0.6415835  0.2342441    0.00000       Uiso       1.00
      C238          C  0.3331510  0.6444573  0.2573657    0.00000       Uiso       1.00
       O13          O  0.3582761  0.6038678  0.3253383    0.00000       Uiso       1.00
      H133          H  0.3074453  0.5878106  0.3012975    0.00000       Uiso       1.00
      H134          H  0.2680846  0.5874484  0.2639984    0.00000       Uiso       1.00
      H135          H  0.3159060  0.6536994  0.2140100    0.00000       Uiso       1.00
      C239          C  0.3764622  0.8017012  0.1447196    0.00000       Uiso       1.00
      C240          C  0.3762889  0.7809836  0.1679324    0.00000       Uiso       1.00
      C241          C  0.3965999  0.7828326  0.1914953    0.00000       Uiso       1.00
      C242          C  0.3970697  0.7610257  0.2137340    0.00000       Uiso       1.00
      C243          C  0.3783295  0.7359172  0.2120278    0.00000       Uiso       1.00
      C244          C  0.3583290  0.7342890  0.1878389    0.00000       Uiso       1.00
      C245          C  0.3554531  0.7574195  0.1668997    0.00000       Uiso       1.00
       O14          O  0.3960950  0.8253453  0.1417442    0.00000       Uiso       1.00
      H136          H  0.4121346  0.8013097  0.1925936    0.00000       Uiso       1.00
      H137          H  0.4124916  0.7640098  0.2319434    0.00000       Uiso       1.00
      H138          H  0.3462063  0.7140650  0.1841216    0.00000       Uiso       1.00
      C246          C  0.1983065  0.6446936  0.1235253    0.00000       Uiso       1.00
      C247          C  0.2190081  0.6679154  0.1237129    0.00000       Uiso       1.00
      C248          C  0.2171271  0.6914940  0.1034255    0.00000       Uiso       1.00
      C249          C  0.2389106  0.7137578  0.1029712    0.00000       Uiso       1.00
      C250          C  0.2640216  0.7120618  0.1217110    0.00000       Uiso       1.00
      C251          C  0.2656820  0.6878562  0.1416913    0.00000       Uiso       1.00
      C252          C  0.2425789  0.6668828  0.1445420    0.00000       Uiso       1.00
       O15          O  0.1746436  0.6417376  0.1039147    0.00000       Uiso       1.00
      H139          H  0.1986377  0.6925769  0.0878997    0.00000       Uiso       1.00
      H140          H  0.2359114  0.7319769  0.0875619    0.00000       Uiso       1.00
      H141          H  0.2859125  0.6841591  0.1538150    0.00000       Uiso       1.00
      C253          C  0.2005936  0.6211277  0.1427087    0.00000       Uiso       1.00
      C254          C  0.2226437  0.6200332  0.1646315    0.00000       Uiso       1.00
      C255          C  0.2244621  0.5962320  0.1846671    0.00000       Uiso       1.00
      C256          C  0.2460037  0.5960966  0.2071680    0.00000       Uiso       1.00
      C257          C  0.2651665  0.6206062  0.2112232    0.00000       Uiso       1.00
      C258          C  0.2624874  0.6446599  0.1911819    0.00000       Uiso       1.00
      C259          C  0.2430924  0.6438729  0.1665883    0.00000       Uiso       1.00
       O16          O  0.1786146  0.5999457  0.1381095    0.00000       Uiso       1.00
      H142          H  0.2091464  0.5776470  0.1827285    0.00000       Uiso       1.00
      H143          H  0.2471824  0.5767156  0.2213526    0.00000       Uiso       1.00
      H144          H  0.2743083  0.6649023  0.1956784    0.00000       Uiso       1.00
      C260          C  0.3572432  0.7994426  0.1211777    0.00000       Uiso       1.00
      C261          C  0.3353043  0.7774073  0.1200999    0.00000       Uiso       1.00
      C262          C  0.3152250  0.7756225  0.0963318    0.00000       Uiso       1.00
      C263          C  0.2927161  0.7540909  0.0962126    0.00000       Uiso       1.00
      C264          C  0.2886976  0.7348961  0.1207051    0.00000       Uiso       1.00
      C265          C  0.3087810  0.7375459  0.1447270    0.00000       Uiso       1.00
      C266          C  0.3333766  0.7569361  0.1439210    0.00000       Uiso       1.00
       O17          O  0.3618354  0.8214257  0.0999998    0.00000       Uiso       1.00
      H145          H  0.3171435  0.7909496  0.0777517    0.00000       Uiso       1.00
      H146          H  0.2785029  0.7529420  0.0768500    0.00000       Uiso       1.00
      H147          H  0.3043158  0.7257168  0.1649714    0.00000       Uiso       1.00
      C267          C  0.3788595  0.6426923  0.2994049    0.00000       Uiso       1.00
      C268          C  0.3799434  0.6646155  0.2773573    0.00000       Uiso       1.00
      C269          C  0.4037074  0.6846973  0.2755808    0.00000       Uiso       1.00
      C270          C  0.4038283  0.7072102  0.2540540    0.00000       Uiso       1.00
      C271          C  0.3793423  0.7112222  0.2348452    0.00000       Uiso       1.00
      C272          C  0.3553265  0.6911249  0.2374784    0.00000       Uiso       1.00
      C273          C  0.3561303  0.6665326  0.2568754    0.00000       Uiso       1.00
       O18          O  0.4000250  0.6381267  0.3214058    0.00000       Uiso       1.00
      H148          H  0.4222789  0.6827790  0.2909196    0.00000       Uiso       1.00
      H149          H  0.4231853  0.7214325  0.2529237    0.00000       Uiso       1.00
      H150          H  0.3350855  0.6955817  0.2256352    0.00000       Uiso       1.00
        B7          B  0.3867441  0.6133941  0.3377161    0.00000       Uiso       1.00
        B8          B  0.3865851  0.8377190  0.1132694    0.00000       Uiso       1.00
        B9          B  0.1622894  0.6132467  0.1133985    0.00000       Uiso       1.00
      C274          C  0.6446818  0.3765254  0.3016703    0.00000       Uiso       1.00
      C275          C  0.6678849  0.3763646  0.2809440    0.00000       Uiso       1.00
      C276          C  0.6914523  0.3966680  0.2828062    0.00000       Uiso       1.00
      C277          C  0.7136977  0.3971369  0.2610068    0.00000       Uiso       1.00
      C278          C  0.7119966  0.3783973  0.2358970    0.00000       Uiso       1.00
      C279          C  0.6877974  0.3584138  0.2342454    0.00000       Uiso       1.00
      C280          C  0.6668481  0.3555401  0.2573670    0.00000       Uiso       1.00
       O19          O  0.6417229  0.3961301  0.3253392    0.00000       Uiso       1.00
      H151          H  0.6925538  0.4121871  0.3012984    0.00000       Uiso       1.00
      H152          H  0.7319144  0.4125492  0.2639993    0.00000       Uiso       1.00
      H153          H  0.6840931  0.3462978  0.2140114    0.00000       Uiso       1.00
      C281          C  0.6235371  0.1982955  0.1447219    0.00000       Uiso       1.00
      C282          C  0.6237103  0.2190133  0.1679345    0.00000       Uiso       1.00
      C283          C  0.6033992  0.2171645  0.1914974    0.00000       Uiso       1.00
      C284          C  0.6029294  0.2389714  0.2137359    0.00000       Uiso       1.00
      C285          C  0.6216697  0.2640800  0.2120296    0.00000       Uiso       1.00
      C286          C  0.6416702  0.2657080  0.1878407    0.00000       Uiso       1.00
      C287          C  0.6445461  0.2425773  0.1669017    0.00000       Uiso       1.00
       O20          O  0.6039042  0.1746514  0.1417466    0.00000       Uiso       1.00
      H154          H  0.5878645  0.1986874  0.1925958    0.00000       Uiso       1.00
      H155          H  0.5875075  0.2359875  0.2319454    0.00000       Uiso       1.00
      H156          H  0.6537928  0.2859319  0.1841233    0.00000       Uiso       1.00
      C288          C  0.8016928  0.3553030  0.1235267    0.00000       Uiso       1.00
      C289          C  0.7809912  0.3320812  0.1237145    0.00000       Uiso       1.00
      C290          C  0.7828722  0.3085024  0.1034273    0.00000       Uiso       1.00
      C291          C  0.7610888  0.2862386  0.1029731    0.00000       Uiso       1.00
      C292          C  0.7359776  0.2879348  0.1217128    0.00000       Uiso       1.00
      C293          C  0.7343173  0.3121404  0.1416929    0.00000       Uiso       1.00
      C294          C  0.7574203  0.3331140  0.1445436    0.00000       Uiso       1.00
       O21          O  0.8253558  0.3582588  0.1039162    0.00000       Uiso       1.00
      H157          H  0.8013617  0.3074194  0.0879015    0.00000       Uiso       1.00
      H158          H  0.7640880  0.2680194  0.0875639    0.00000       Uiso       1.00
      H159          H  0.7140867  0.3158377  0.1538166    0.00000       Uiso       1.00
      C295          C  0.7994056  0.3788689  0.1427100    0.00000       Uiso       1.00
      C296          C  0.7773555  0.3799636  0.1646328    0.00000       Uiso       1.00
      C297          C  0.7755371  0.4037649  0.1846682    0.00000       Uiso       1.00
      C298          C  0.7539955  0.4039006  0.2071691    0.00000       Uiso       1.00
      C299          C  0.7348327  0.3793909  0.2112245    0.00000       Uiso       1.00
      C300          C  0.7375117  0.3553371  0.1911833    0.00000       Uiso       1.00
      C301          C  0.7569068  0.3561240  0.1665897    0.00000       Uiso       1.00
       O22          O  0.8213847  0.4000509  0.1381107    0.00000       Uiso       1.00
      H160          H  0.7908528  0.4223500  0.1827295    0.00000       Uiso       1.00
      H161          H  0.7528167  0.4232816  0.2213536    0.00000       Uiso       1.00
      H162          H  0.7256908  0.3350947  0.1956799    0.00000       Uiso       1.00
      C302          C  0.6427560  0.2005540  0.1211799    0.00000       Uiso       1.00
      C303          C  0.6646950  0.2225892  0.1201021    0.00000       Uiso       1.00
      C304          C  0.6847743  0.2243739  0.0963339    0.00000       Uiso       1.00
      C305          C  0.7072832  0.2459055  0.0962147    0.00000       Uiso       1.00
      C306          C  0.7113017  0.2651004  0.1207071    0.00000       Uiso       1.00
      C307          C  0.6912182  0.2624508  0.1447289    0.00000       Uiso       1.00
      C308          C  0.6666227  0.2430606  0.1439230    0.00000       Uiso       1.00
       O23          O  0.6381640  0.1785706  0.1000022    0.00000       Uiso       1.00
      H163          H  0.6828558  0.2090466  0.0777540    0.00000       Uiso       1.00
      H164          H  0.7214965  0.2470543  0.0768521    0.00000       Uiso       1.00
      H165          H  0.6956834  0.2742800  0.1649733    0.00000       Uiso       1.00
      C309          C  0.6211395  0.3573054  0.2994061    0.00000       Uiso       1.00
      C310          C  0.6200557  0.3353822  0.2773586    0.00000       Uiso       1.00
      C311          C  0.5962917  0.3153003  0.2755822    0.00000       Uiso       1.00
      C312          C  0.5961707  0.2927872  0.2540556    0.00000       Uiso       1.00
      C313          C  0.6206568  0.2887751  0.2348468    0.00000       Uiso       1.00
      C314          C  0.6446726  0.3088725  0.2374799    0.00000       Uiso       1.00
      C315          C  0.6438687  0.3334648  0.2568768    0.00000       Uiso       1.00
       O24          O  0.5999740  0.3618712  0.3214069    0.00000       Uiso       1.00
      H166          H  0.5777201  0.3172187  0.2909210    0.00000       Uiso       1.00
      H167          H  0.5768138  0.2785649  0.2529253    0.00000       Uiso       1.00
      H168          H  0.6649136  0.3044156  0.2256367    0.00000       Uiso       1.00
       B10          B  0.6132548  0.3866039  0.3377170    0.00000       Uiso       1.00
       B11          B  0.6134142  0.1622775  0.1132719    0.00000       Uiso       1.00
       B12          B  0.8377099  0.3867498  0.1133998    0.00000       Uiso       1.00
