data_45
_audit_creation_date              0000-00-00
_audit_creation_method            'LanYouShi'
_symmetry_space_group_name_H-M    'P1'
_cell_length_a                    45.0443993
_cell_length_b                    63.7023010
_cell_length_c                    45.0443993
_cell_angle_alpha                 90.0000000
_cell_angle_beta                  90.0000000
_cell_angle_gamma                 135.0000000
loop_
_atom_site_label
_atom_site_type_symbol
_atom_site_fract_x
_atom_site_fract_y
_atom_site_fract_z
_atom_site_U_iso_or_equiv
_atom_site_adp_type
_atom_site_occupancy
        C1          C  0.4999996  0.5979889  0.3644432    0.00000       Uiso       1.00
        C2          C  0.4621753  0.5714569  0.3759058    0.00000       Uiso       1.00
        C3          C  0.4621437  0.5563687  0.3984465    0.00000       Uiso       1.00
        C4          C  0.5378239  0.6092813  0.3759058    0.00000       Uiso       1.00
        C5          C  0.5378554  0.5942246  0.3984465    0.00000       Uiso       1.00
        C6          C  0.4999996  0.5678881  0.4111449    0.00000       Uiso       1.00
        H1          H  0.3618096  0.4648169  0.5945357    0.00000       Uiso       1.00
        H2          H  0.6381894  0.6030070  0.5945358    0.00000       Uiso       1.00
        H3          H  0.4310348  0.5619676  0.3668673    0.00000       Uiso       1.00
        C7          C  0.3040232  0.4020114  0.6355566    0.00000       Uiso       1.00
        C8          C  0.3192627  0.4285434  0.6240940    0.00000       Uiso       1.00
        C9          C  0.3494074  0.4436316  0.6015532    0.00000       Uiso       1.00
       C10          C  0.3192627  0.3907190  0.6240937    0.00000       Uiso       1.00
       C11          C  0.3494074  0.4057757  0.6015530    0.00000       Uiso       1.00
       C12          C  0.3642244  0.4321122  0.5888546    0.00000       Uiso       1.00
        H4          H  0.4321755  0.5351834  0.4054640    0.00000       Uiso       1.00
        H5          H  0.4321755  0.3969933  0.4054631    0.00000       Uiso       1.00
        H6          H  0.3071009  0.3690678  0.6331322    0.00000       Uiso       1.00
       C13          C  0.6959757  0.5979879  0.6355566    0.00000       Uiso       1.00
       C14          C  0.6807363  0.5714561  0.6240938    0.00000       Uiso       1.00
       C15          C  0.6505915  0.5563680  0.6015530    0.00000       Uiso       1.00
       C16          C  0.6807363  0.6092805  0.6240941    0.00000       Uiso       1.00
       C17          C  0.6505916  0.5942239  0.6015533    0.00000       Uiso       1.00
       C18          C  0.6357745  0.5678875  0.5888547    0.00000       Uiso       1.00
        H7          H  0.5678236  0.4648175  0.4054632    0.00000       Uiso       1.00
        H8          H  0.5678236  0.6030077  0.4054641    0.00000       Uiso       1.00
        H9          H  0.6928981  0.6309316  0.6331327    0.00000       Uiso       1.00
       C19          C  0.4999996  0.4020124  0.3644419    0.00000       Uiso       1.00
       C20          C  0.5378239  0.4285443  0.3759046    0.00000       Uiso       1.00
       C21          C  0.5378555  0.4436324  0.3984455    0.00000       Uiso       1.00
       C22          C  0.4621752  0.3907198  0.3759046    0.00000       Uiso       1.00
       C23          C  0.4621437  0.4057764  0.3984455    0.00000       Uiso       1.00
       C24          C  0.4999996  0.4321128  0.4111441    0.00000       Uiso       1.00
       H10          H  0.6381894  0.5351828  0.5945354    0.00000       Uiso       1.00
       H11          H  0.3618096  0.3969927  0.5945353    0.00000       Uiso       1.00
       C25          C  0.4999993  0.5000001  0.4999996    0.00000       Uiso       1.00
       H12          H  0.5689644  0.4380336  0.3668661    0.00000       Uiso       1.00
       C26          C  0.5798909  0.6385295  0.3636959    0.00000       Uiso       1.00
       H13          H  0.6024032  0.6430782  0.3737669    0.00000       Uiso       1.00
       H14          H  0.5815678  0.6541025  0.3667263    0.00000       Uiso       1.00
       H15          H  0.5816522  0.6364505  0.3430627    0.00000       Uiso       1.00
       C27          C  0.4201083  0.3614718  0.3636947    0.00000       Uiso       1.00
       H16          H  0.3975961  0.3569230  0.3737657    0.00000       Uiso       1.00
       H17          H  0.4184313  0.3458987  0.3667248    0.00000       Uiso       1.00
       H18          H  0.4183470  0.3635509  0.3430615    0.00000       Uiso       1.00
       C28          C  0.3028336  0.4413623  0.6363041    0.00000       Uiso       1.00
       H19          H  0.3162483  0.4593259  0.6262331    0.00000       Uiso       1.00
       H20          H  0.3087532  0.4452027  0.6569373    0.00000       Uiso       1.00
       H21          H  0.2733645  0.4274662  0.6332740    0.00000       Uiso       1.00
       C29          C  0.6971654  0.5586371  0.6363036    0.00000       Uiso       1.00
       H22          H  0.6837506  0.5406736  0.6262326    0.00000       Uiso       1.00
       H23          H  0.6912457  0.5547966  0.6569368    0.00000       Uiso       1.00
       H24          H  0.7266344  0.5725332  0.6332735    0.00000       Uiso       1.00
       C30          C  0.5003164  0.5514888  0.4346156    0.00000       Uiso       1.00
       C31          C  0.4683200  0.5344326  0.4560272    0.00000       Uiso       1.00
       C32          C  0.4680463  0.5183848  0.4774955    0.00000       Uiso       1.00
       C33          C  0.5323647  0.5523539  0.4355099    0.00000       Uiso       1.00
       C34          C  0.5326415  0.5369232  0.4572777    0.00000       Uiso       1.00
       C35          C  0.5006323  0.5196108  0.4788641    0.00000       Uiso       1.00
       H25          H  0.4820238  0.5197563  0.5431508    0.00000       Uiso       1.00
       H26          H  0.5567685  0.5642028  0.4188312    0.00000       Uiso       1.00
       H27          H  0.4431823  0.5332980  0.4561017    0.00000       Uiso       1.00
       C36          C  0.3973404  0.4488279  0.5653848    0.00000       Uiso       1.00
       C37          C  0.4276639  0.4800109  0.5644957    0.00000       Uiso       1.00
       C38          C  0.4587996  0.4957195  0.5427256    0.00000       Uiso       1.00
       C39          C  0.3994510  0.4338876  0.5439695    0.00000       Uiso       1.00
       C40          C  0.4312741  0.4496625  0.5225019    0.00000       Uiso       1.00
       C41          C  0.4614116  0.4810228  0.5211361    0.00000       Uiso       1.00
       H28          H  0.4425099  0.4622665  0.4568511    0.00000       Uiso       1.00
       H29          H  0.3765752  0.4098839  0.5438889    0.00000       Uiso       1.00
       H30          H  0.4283703  0.4925619  0.5811799    0.00000       Uiso       1.00
       C42          C  0.6026582  0.5511721  0.5653848    0.00000       Uiso       1.00
       C43          C  0.5723385  0.5199890  0.5644917    0.00000       Uiso       1.00
       C44          C  0.5412016  0.5042807  0.5427226    0.00000       Uiso       1.00
       C45          C  0.6005425  0.5661125  0.5439730    0.00000       Uiso       1.00
       C46          C  0.5687206  0.5503377  0.5225050    0.00000       Uiso       1.00
       C47          C  0.5385868  0.5189775  0.5211357    0.00000       Uiso       1.00
       H31          H  0.5574901  0.5377347  0.4568526    0.00000       Uiso       1.00
       H32          H  0.6234124  0.5901160  0.5438942    0.00000       Uiso       1.00
       H33          H  0.5716370  0.5074368  0.5811712    0.00000       Uiso       1.00
       C48          C  0.4996850  0.4485134  0.4346144    0.00000       Uiso       1.00
       C49          C  0.5316803  0.4655684  0.4560269    0.00000       Uiso       1.00
       C50          C  0.5319531  0.4816159  0.4774947    0.00000       Uiso       1.00
       C51          C  0.4676397  0.4476511  0.4355065    0.00000       Uiso       1.00
       C52          C  0.4673596  0.4630793  0.4572757    0.00000       Uiso       1.00
       C53          C  0.4993670  0.4803898  0.4788632    0.00000       Uiso       1.00
       H34          H  0.5179791  0.4802438  0.5431448    0.00000       Uiso       1.00
       H35          H  0.4432398  0.4358030  0.4188252    0.00000       Uiso       1.00
       H36          H  0.5568166  0.4667015  0.4561054    0.00000       Uiso       1.00
       C54          C  0.5671026  0.5685045  0.5013536    0.00000       Uiso       1.00
       H37          H  0.5443898  0.5554911  0.4878859    0.00000       Uiso       1.00
       H38          H  0.5926825  0.5821673  0.4905780    0.00000       Uiso       1.00
       H39          H  0.5632372  0.5790619  0.5125486    0.00000       Uiso       1.00
       C55          C  0.4328907  0.4314968  0.5013472    0.00000       Uiso       1.00
       H40          H  0.4556049  0.4445112  0.4878808    0.00000       Uiso       1.00
       H41          H  0.4073116  0.4178365  0.4905704    0.00000       Uiso       1.00
       H42          H  0.4367530  0.4209368  0.5125402    0.00000       Uiso       1.00
       C56          C  0.5699070  0.5014026  0.4986440    0.00000       Uiso       1.00
       H43          H  0.5665938  0.5111023  0.5121118    0.00000       Uiso       1.00
       H44          H  0.5948856  0.5158250  0.4874475    0.00000       Uiso       1.00
       H45          H  0.5716547  0.4894865  0.5094194    0.00000       Uiso       1.00
       C57          C  0.4300917  0.4985960  0.4986440    0.00000       Uiso       1.00
       H46          H  0.4334063  0.4888969  0.5121117    0.00000       Uiso       1.00
       H47          H  0.4051138  0.4841729  0.4874469    0.00000       Uiso       1.00
       H48          H  0.4283412  0.5105104  0.5094197    0.00000       Uiso       1.00
       C58          C  0.0375687  0.4020105  0.9020088    0.00000       Uiso       1.00
       C59          C  0.0148136  0.3907180  0.9285407    0.00000       Uiso       1.00
       C60          C  0.0073294  0.4057745  0.9436290    0.00000       Uiso       1.00
       C61          C  0.0526379  0.4285425  0.8907165    0.00000       Uiso       1.00
       C62          C  0.0451853  0.4436306  0.9057732    0.00000       Uiso       1.00
       C63          C  0.0209674  0.4321111  0.9321096    0.00000       Uiso       1.00
       H49          H  0.8024558  0.3969912  0.0351814    0.00000       Uiso       1.00
       H50          H  0.9406458  0.5351818  0.8969911    0.00000       Uiso       1.00
       H51          H  0.0022009  0.3690668  0.9380299    0.00000       Uiso       1.00
       C64          C  0.7664536  0.4020099  0.0979868    0.00000       Uiso       1.00
       C65          C  0.7666239  0.3907175  0.0714548    0.00000       Uiso       1.00
       C66          C  0.8042212  0.4057741  0.0563667    0.00000       Uiso       1.00
       C67          C  0.8044482  0.4285418  0.1092793    0.00000       Uiso       1.00
       C68          C  0.8420771  0.4436300  0.0942227    0.00000       Uiso       1.00
       C69          C  0.8432562  0.4321106  0.0678862    0.00000       Uiso       1.00
       H52          H  0.9915278  0.3969914  0.9648141    0.00000       Uiso       1.00
       H53          H  0.1297186  0.5351811  0.1030055    0.00000       Uiso       1.00
       H54          H  0.8048990  0.4380310  0.1309305    0.00000       Uiso       1.00
       C70          C  0.9624299  0.5979871  0.9020102    0.00000       Uiso       1.00
       C71          C  0.9851851  0.6092795  0.9285421    0.00000       Uiso       1.00
       C72          C  0.9926692  0.5942227  0.9436302    0.00000       Uiso       1.00
       C73          C  0.9473607  0.5714552  0.8907176    0.00000       Uiso       1.00
       C74          C  0.9548134  0.5563670  0.9057742    0.00000       Uiso       1.00
       C75          C  0.9790313  0.5678864  0.9321106    0.00000       Uiso       1.00
       H55          H  0.1975427  0.6030055  0.0351816    0.00000       Uiso       1.00
       H56          H  0.0593529  0.4648159  0.8969903    0.00000       Uiso       1.00
       H57          H  0.9288329  0.5619659  0.8690665    0.00000       Uiso       1.00
       C76          C  0.2335449  0.5979864  0.0979867    0.00000       Uiso       1.00
       C77          C  0.2333746  0.6092790  0.0714548    0.00000       Uiso       1.00
       C78          C  0.1957772  0.5942224  0.0563667    0.00000       Uiso       1.00
       C79          C  0.1955503  0.5714545  0.1092791    0.00000       Uiso       1.00
       C80          C  0.1579213  0.5563663  0.0942225    0.00000       Uiso       1.00
       C81          C  0.1567423  0.5678859  0.0678861    0.00000       Uiso       1.00
       H58          H  0.0084708  0.6030058  0.9648153    0.00000       Uiso       1.00
       H59          H  0.8702798  0.4648151  0.1030058    0.00000       Uiso       1.00
       C82          C  0.9999986  0.4999983  0.9999977    0.00000       Uiso       1.00
       H60          H  0.2640643  0.6309302  0.0619656    0.00000       Uiso       1.00
       C83          C  0.0776668  0.4413615  0.8614684    0.00000       Uiso       1.00
       H61          H  0.0855593  0.4593250  0.8569198    0.00000       Uiso       1.00
       H62          H  0.0607405  0.4274655  0.8458953    0.00000       Uiso       1.00
       H63          H  0.1021404  0.4452019  0.8635474    0.00000       Uiso       1.00
       C84          C  0.1949413  0.5586354  0.1385270    0.00000       Uiso       1.00
       H64          H  0.1669068  0.5406718  0.1430757    0.00000       Uiso       1.00
       H65          H  0.2058071  0.5725315  0.1541001    0.00000       Uiso       1.00
       H66          H  0.2117341  0.5547950  0.1364479    0.00000       Uiso       1.00
       C85          C  0.7251659  0.3614694  0.0586359    0.00000       Uiso       1.00
       H67          H  0.7306882  0.3569207  0.0406723    0.00000       Uiso       1.00
       H68          H  0.7066119  0.3635486  0.0547954    0.00000       Uiso       1.00
       H69          H  0.7126230  0.3458964  0.0725318    0.00000       Uiso       1.00
       C86          C  0.0022241  0.6385275  0.9413612    0.00000       Uiso       1.00
       H70          H  0.0168439  0.6430762  0.9593247    0.00000       Uiso       1.00
       H71          H  0.9795107  0.6364483  0.9452017    0.00000       Uiso       1.00
       H72          H  0.0208273  0.6541006  0.9274651    0.00000       Uiso       1.00
       C87          C  0.0142126  0.4488271  0.9485089    0.00000       Uiso       1.00
       C88          C  0.9778598  0.4338868  0.9655650    0.00000       Uiso       1.00
       C89          C  0.9721654  0.4496608  0.9816129    0.00000       Uiso       1.00
       C90          C  0.0445015  0.4800104  0.9476440    0.00000       Uiso       1.00
       C91          C  0.0384408  0.4957177  0.9630747    0.00000       Uiso       1.00
       C92          C  0.0021577  0.4810207  0.9803870    0.00000       Uiso       1.00
       H73          H  0.9191158  0.4622666  0.9802414    0.00000       Uiso       1.00
       H74          H  0.0737350  0.4925653  0.9357951    0.00000       Uiso       1.00
       H75          H  0.9537822  0.4098835  0.9666996    0.00000       Uiso       1.00
       C93          C  0.8831263  0.4485110  0.0511706    0.00000       Uiso       1.00
       C94          C  0.8831562  0.4476518  0.0199877    0.00000       Uiso       1.00
       C95          C  0.9203534  0.4630790  0.0042791    0.00000       Uiso       1.00
       C96          C  0.9215924  0.4655620  0.0661109    0.00000       Uiso       1.00
       C97          C  0.9591083  0.4816104  0.0503361    0.00000       Uiso       1.00
       C98          C  0.9592516  0.4803877  0.0189758    0.00000       Uiso       1.00
       H76          H  0.0233923  0.4802424  0.0377322    0.00000       Uiso       1.00
       H77          H  0.9228008  0.4666897  0.0901145    0.00000       Uiso       1.00
       H78          H  0.8546274  0.4358071  0.0074366    0.00000       Uiso       1.00
       C99          C  0.9861002  0.5514853  0.9488259    0.00000       Uiso       1.00
      C100          C  0.9878565  0.5523487  0.9800090    0.00000       Uiso       1.00
      C101          C  0.9941971  0.5369200  0.9957173    0.00000       Uiso       1.00
      C102          C  0.9904560  0.5344293  0.9338855    0.00000       Uiso       1.00
      C103          C  0.9958770  0.5183822  0.9496602    0.00000       Uiso       1.00
      C104          C  0.9984725  0.5196084  0.9810203    0.00000       Uiso       1.00
       H79          H  0.0629030  0.5197548  0.9622632    0.00000       Uiso       1.00
       H80          H  0.9894014  0.5332959  0.9098820    0.00000       Uiso       1.00
       H81          H  0.9830276  0.5641991  0.9925612    0.00000       Uiso       1.00
      C105          C  0.1165569  0.5511708  0.0514855    0.00000       Uiso       1.00
      C106          C  0.1100847  0.5661111  0.0344306    0.00000       Uiso       1.00
      C107          C  0.0728423  0.5503363  0.0183830    0.00000       Uiso       1.00
      C108          C  0.0844820  0.5199878  0.0523477    0.00000       Uiso       1.00
      C109          C  0.0470045  0.5042794  0.0369194    0.00000       Uiso       1.00
      C110          C  0.0401138  0.5189762  0.0196090    0.00000       Uiso       1.00
       H82          H  0.9945891  0.5377343  0.0197550    0.00000       Uiso       1.00
       H83          H  0.0886115  0.5074359  0.0641957    0.00000       Uiso       1.00
       H84          H  0.1340094  0.5901144  0.0332976    0.00000       Uiso       1.00
      C111          C  0.9972439  0.4985975  0.9314934    0.00000       Uiso       1.00
       H85          H  0.0010132  0.4888981  0.9445068    0.00000       Uiso       1.00
       H86          H  0.0199376  0.5105147  0.9178307    0.00000       Uiso       1.00
       H87          H  0.9716262  0.4841748  0.9209360    0.00000       Uiso       1.00
      C112          C  0.0000463  0.5013927  0.0685018    0.00000       Uiso       1.00
       H88          H  0.0232125  0.5110925  0.0554875    0.00000       Uiso       1.00
       H89          H  0.9989033  0.4894738  0.0821622    0.00000       Uiso       1.00
       H90          H  0.0032755  0.5158149  0.0790619    0.00000       Uiso       1.00
      C113          C  0.0698602  0.5685037  0.9985955    0.00000       Uiso       1.00
       H91          H  0.0433795  0.5554907  0.9888957    0.00000       Uiso       1.00
       H92          H  0.0916131  0.5790600  0.9841731    0.00000       Uiso       1.00
       H93          H  0.0727485  0.5821674  0.0105126    0.00000       Uiso       1.00
      C114          C  0.9328510  0.4314947  0.0014026    0.00000       Uiso       1.00
       H94          H  0.9323968  0.4445083  0.0111017    0.00000       Uiso       1.00
       H95          H  0.9334932  0.4209399  0.0158256    0.00000       Uiso       1.00
       H96          H  0.9084104  0.4178298  0.9894871    0.00000       Uiso       1.00
      C115          C  0.2335449  0.1355551  0.0979901    0.00000       Uiso       1.00
      C116          C  0.1955503  0.1240923  0.1092826    0.00000       Uiso       1.00
      C117          C  0.1579213  0.1015516  0.0942259    0.00000       Uiso       1.00
      C118          C  0.2333746  0.1240925  0.0714581    0.00000       Uiso       1.00
      C119          C  0.1957772  0.1015517  0.0563699    0.00000       Uiso       1.00
      C120          C  0.1567423  0.0888531  0.0678894    0.00000       Uiso       1.00
       H97          H  0.8702798  0.9054623  0.1030085    0.00000       Uiso       1.00
       H98          H  0.0084708  0.9054627  0.9648173    0.00000       Uiso       1.00
       H99          H  0.1950995  0.1331308  0.1309337    0.00000       Uiso       1.00
      C121          C  0.7664536  0.8644412  0.0979897    0.00000       Uiso       1.00
      C122          C  0.8044482  0.8759038  0.1092821    0.00000       Uiso       1.00
      C123          C  0.8420771  0.8984448  0.0942255    0.00000       Uiso       1.00
      C124          C  0.7666238  0.8759040  0.0714579    0.00000       Uiso       1.00
      C125          C  0.8042212  0.8984448  0.0563698    0.00000       Uiso       1.00
      C126          C  0.8432562  0.9111433  0.0678892    0.00000       Uiso       1.00
      H100          H  0.1297186  0.0945339  0.1030090    0.00000       Uiso       1.00
      H101          H  0.9915278  0.0945344  0.9648185    0.00000       Uiso       1.00
      H102          H  0.7359342  0.8668655  0.0619686    0.00000       Uiso       1.00
      C127          C  0.9624299  0.8644418  0.9020119    0.00000       Uiso       1.00
      C128          C  0.9473608  0.8759046  0.8907196    0.00000       Uiso       1.00
      C129          C  0.9548134  0.8984454  0.9057763    0.00000       Uiso       1.00
      C130          C  0.9851850  0.8759044  0.9285438    0.00000       Uiso       1.00
      C131          C  0.9926692  0.8984452  0.9436321    0.00000       Uiso       1.00
      C132          C  0.9790313  0.9111438  0.9321128    0.00000       Uiso       1.00
      H103          H  0.0593529  0.0945346  0.8969942    0.00000       Uiso       1.00
      H104          H  0.1975427  0.0945342  0.0351847    0.00000       Uiso       1.00
      H105          H  0.9977977  0.8668659  0.9380330    0.00000       Uiso       1.00
      C133          C  0.0375687  0.1355558  0.9020134    0.00000       Uiso       1.00
      C134          C  0.0526379  0.1240931  0.8907208    0.00000       Uiso       1.00
      C135          C  0.0451853  0.1015522  0.9057773    0.00000       Uiso       1.00
      C136          C  0.0148136  0.1240929  0.9285452    0.00000       Uiso       1.00
      C137          C  0.0073294  0.1015521  0.9436333    0.00000       Uiso       1.00
      C138          C  0.0209673  0.0888536  0.9321138    0.00000       Uiso       1.00
      H106          H  0.9406458  0.9054630  0.8969933    0.00000       Uiso       1.00
      H107          H  0.8024558  0.9054626  0.0351846    0.00000       Uiso       1.00
      C139          C  0.9999986  0.9999987  0.0000019    0.00000       Uiso       1.00
      H108          H  0.0711658  0.1331317  0.8690698    0.00000       Uiso       1.00
      C140          C  0.2748326  0.1363024  0.0586391    0.00000       Uiso       1.00
      H109          H  0.2693104  0.1262315  0.0406756    0.00000       Uiso       1.00
      H110          H  0.2873754  0.1332721  0.0725352    0.00000       Uiso       1.00
      H111          H  0.2933868  0.1569357  0.0547988    0.00000       Uiso       1.00
      C141          C  0.9977745  0.1363028  0.9413643    0.00000       Uiso       1.00
      H112          H  0.9831547  0.1262318  0.9593278    0.00000       Uiso       1.00
      H113          H  0.9791712  0.1332726  0.9274683    0.00000       Uiso       1.00
      H114          H  0.0204877  0.1569361  0.9452048    0.00000       Uiso       1.00
      C142          C  0.8050571  0.8636938  0.1385301    0.00000       Uiso       1.00
      H115          H  0.8330917  0.8737648  0.1430788    0.00000       Uiso       1.00
      H116          H  0.7882644  0.8430606  0.1364508    0.00000       Uiso       1.00
      H117          H  0.7941912  0.8667239  0.1541031    0.00000       Uiso       1.00
      C143          C  0.9223320  0.8636948  0.8614716    0.00000       Uiso       1.00
      H118          H  0.9144394  0.8737658  0.8569229    0.00000       Uiso       1.00
      H119          H  0.8978582  0.8430615  0.8635507    0.00000       Uiso       1.00
      H120          H  0.9392580  0.8667249  0.8458985    0.00000       Uiso       1.00
      C144          C  0.1168724  0.0653824  0.0511733    0.00000       Uiso       1.00
      C145          C  0.0784047  0.0439707  0.0661135    0.00000       Uiso       1.00
      C146          C  0.0408884  0.0225023  0.0503394    0.00000       Uiso       1.00
      C147          C  0.1168430  0.0644881  0.0199901    0.00000       Uiso       1.00
      C148          C  0.0796445  0.0427202  0.0042827    0.00000       Uiso       1.00
      C149          C  0.0407459  0.0211338  0.0189795    0.00000       Uiso       1.00
      H121          H  0.9766039  0.9568474  0.0377335    0.00000       Uiso       1.00
      H122          H  0.1453706  0.0811669  0.0074352    0.00000       Uiso       1.00
      H123          H  0.0771956  0.0438962  0.0901167    0.00000       Uiso       1.00
      C150          C  0.8834416  0.9346132  0.0514888    0.00000       Uiso       1.00
      C151          C  0.9155137  0.9355025  0.0523481    0.00000       Uiso       1.00
      C152          C  0.9529923  0.9572726  0.0369210    0.00000       Uiso       1.00
      C153          C  0.8899163  0.9560285  0.0344380    0.00000       Uiso       1.00
      C154          C  0.9271588  0.9774961  0.0183897    0.00000       Uiso       1.00
      C155          C  0.9598851  0.9788622  0.0196124    0.00000       Uiso       1.00
      H124          H  0.0054144  0.0431466  0.0197579    0.00000       Uiso       1.00
      H125          H  0.8659933  0.9561090  0.0333103    0.00000       Uiso       1.00
      H126          H  0.9113806  0.9188182  0.0641927    0.00000       Uiso       1.00
      C156          C  0.9857857  0.9346136  0.9485138    0.00000       Uiso       1.00
      C157          C  0.9554955  0.9355065  0.9476505    0.00000       Uiso       1.00
      C158          C  0.9615564  0.9572757  0.9630792    0.00000       Uiso       1.00
      C159          C  0.0221388  0.9560255  0.9655699    0.00000       Uiso       1.00
      C160          C  0.0278320  0.9774935  0.9816170    0.00000       Uiso       1.00
      C161          C  0.9978400  0.9788626  0.9803908    0.00000       Uiso       1.00
      H127          H  0.0808811  0.0431453  0.9802446    0.00000       Uiso       1.00
      H128          H  0.0462212  0.9561043  0.9667034    0.00000       Uiso       1.00
      H129          H  0.9262640  0.9188271  0.9357998    0.00000       Uiso       1.00
      C162          C  0.0138977  0.0653833  0.9488288    0.00000       Uiso       1.00
      C163          C  0.0095402  0.0439708  0.9338884    0.00000       Uiso       1.00
      C164          C  0.0041202  0.0225031  0.9496631    0.00000       Uiso       1.00
      C165          C  0.0121434  0.0644912  0.9800117    0.00000       Uiso       1.00
      C166          C  0.0058026  0.0427220  0.9957200    0.00000       Uiso       1.00
      C167          C  0.0015256  0.0211345  0.9810231    0.00000       Uiso       1.00
      H130          H  0.9370972  0.9568534  0.9622648    0.00000       Uiso       1.00
      H131          H  0.0169766  0.0811725  0.9925637    0.00000       Uiso       1.00
      H132          H  0.0105948  0.0438923  0.9098852    0.00000       Uiso       1.00
      C168          C  0.0671503  0.9986450  0.0014028    0.00000       Uiso       1.00
      H133          H  0.0676045  0.0121121  0.0111022    0.00000       Uiso       1.00
      H134          H  0.0915886  0.0094201  0.9894846    0.00000       Uiso       1.00
      H135          H  0.0665127  0.9874500  0.0158254    0.00000       Uiso       1.00
      C169          C  0.9301477  0.9986508  0.9986066    0.00000       Uiso       1.00
      H136          H  0.9566284  0.0121168  0.9889067    0.00000       Uiso       1.00
      H137          H  0.9272641  0.0094270  0.0105264    0.00000       Uiso       1.00
      H138          H  0.9083947  0.9874579  0.9841843    0.00000       Uiso       1.00
      C170          C  0.0027575  0.0013538  0.9314957    0.00000       Uiso       1.00
      H139          H  0.9989886  0.9878865  0.9445086    0.00000       Uiso       1.00
      H140          H  0.0283765  0.0125504  0.9209394    0.00000       Uiso       1.00
      H141          H  0.9800650  0.9905789  0.9178320    0.00000       Uiso       1.00
      C171          C  0.9999502  0.0013537  0.0685054    0.00000       Uiso       1.00
      H142          H  0.9767836  0.9878865  0.0554918    0.00000       Uiso       1.00
      H143          H  0.9967242  0.0125508  0.0790602    0.00000       Uiso       1.00
      H144          H  0.0010903  0.9905787  0.0821703    0.00000       Uiso       1.00
      C172          C  0.7681552  0.6446820  0.6983297    0.00000       Uiso       1.00
      C173          C  0.7915190  0.6678851  0.7190561    0.00000       Uiso       1.00
      C174          C  0.7947830  0.6914525  0.7171939    0.00000       Uiso       1.00
      C175          C  0.8165594  0.7136979  0.7389934    0.00000       Uiso       1.00
      C176          C  0.8335978  0.7119966  0.7641034    0.00000       Uiso       1.00
      C177          C  0.8293822  0.6877974  0.7657548    0.00000       Uiso       1.00
      C178          C  0.8113066  0.6668482  0.7426332    0.00000       Uiso       1.00
        O1          O  0.7455918  0.6417232  0.6746607    0.00000       Uiso       1.00
      H145          H  0.7803654  0.6925540  0.6987019    0.00000       Uiso       1.00
      H146          H  0.8193639  0.7319146  0.7360011    0.00000       Uiso       1.00
      H147          H  0.8377937  0.6840930  0.7859887    0.00000       Uiso       1.00
      C179          C  0.9252397  0.6235366  0.8552781    0.00000       Uiso       1.00
      C180          C  0.9046952  0.6237100  0.8320655    0.00000       Uiso       1.00
      C181          C  0.8862331  0.6033989  0.8085025    0.00000       Uiso       1.00
      C182          C  0.8639564  0.6029292  0.7862640    0.00000       Uiso       1.00
      C183          C  0.8575881  0.6216695  0.7879704    0.00000       Uiso       1.00
      C184          C  0.8759605  0.6416699  0.8121593    0.00000       Uiso       1.00
      C185          C  0.9019669  0.6445457  0.8330984    0.00000       Uiso       1.00
        O2          O  0.9292509  0.6039037  0.8582533    0.00000       Uiso       1.00
      H148          H  0.8891755  0.5878642  0.8074040    0.00000       Uiso       1.00
      H149          H  0.8515185  0.5875072  0.7680545    0.00000       Uiso       1.00
      H150          H  0.8678592  0.6537926  0.8158768    0.00000       Uiso       1.00
      C186          C  0.9463878  0.8016925  0.8764740    0.00000       Uiso       1.00
      C187          C  0.9489079  0.7809908  0.8762861    0.00000       Uiso       1.00
      C188          C  0.9743676  0.7828718  0.8965734    0.00000       Uiso       1.00
      C189          C  0.9748480  0.7610883  0.8970274    0.00000       Uiso       1.00
      C190          C  0.9480408  0.7359773  0.8782876    0.00000       Uiso       1.00
      C191          C  0.9221749  0.7343170  0.8583075    0.00000       Uiso       1.00
      C192          C  0.9243044  0.7574201  0.8554569    0.00000       Uiso       1.00
        O3          O  0.9670948  0.8253554  0.8960845    0.00000       Uiso       1.00
      H151          H  0.9939401  0.8013612  0.9120992    0.00000       Uiso       1.00
      H152          H  0.9960663  0.7640875  0.9124367    0.00000       Uiso       1.00
      H153          H  0.8982471  0.7140864  0.8461838    0.00000       Uiso       1.00
      C193          C  0.9205347  0.7994054  0.8572906    0.00000       Uiso       1.00
      C194          C  0.8973901  0.7773553  0.8353677    0.00000       Uiso       1.00
      C195          C  0.8717704  0.7755370  0.8153323    0.00000       Uiso       1.00
      C196          C  0.8500932  0.7539954  0.7928314    0.00000       Uiso       1.00
      C197          C  0.8554402  0.7348326  0.7887759    0.00000       Uiso       1.00
      C198          C  0.8821729  0.7375116  0.8088171    0.00000       Uiso       1.00
      C199          C  0.9007810  0.7569067  0.8334107    0.00000       Uiso       1.00
        O4          O  0.9213318  0.8213845  0.8618900    0.00000       Uiso       1.00
      H154          H  0.8685011  0.7908528  0.8172711    0.00000       Uiso       1.00
      H155          H  0.8295336  0.7528167  0.7786469    0.00000       Uiso       1.00
      H156          H  0.8905944  0.7256907  0.8043205    0.00000       Uiso       1.00
      C200          C  0.9422001  0.6427555  0.8788202    0.00000       Uiso       1.00
      C201          C  0.9421036  0.6646944  0.8798981    0.00000       Uiso       1.00
      C202          C  0.9603984  0.6847737  0.9036663    0.00000       Uiso       1.00
      C203          C  0.9613755  0.7072827  0.9037856    0.00000       Uiso       1.00
      C204          C  0.9461992  0.7113012  0.8792933    0.00000       Uiso       1.00
      C205          C  0.9287655  0.6912178  0.8552713    0.00000       Uiso       1.00
      C206          C  0.9235602  0.6666223  0.8560771    0.00000       Uiso       1.00
        O5          O  0.9595912  0.6381633  0.8999979    0.00000       Uiso       1.00
      H157          H  0.9738070  0.6828552  0.9222462    0.00000       Uiso       1.00
      H158          H  0.9744400  0.7214959  0.9231483    0.00000       Uiso       1.00
      H159          H  0.9214016  0.6956831  0.8350270    0.00000       Uiso       1.00
      C207          C  0.7638329  0.6211396  0.7005938    0.00000       Uiso       1.00
      C208          C  0.7846722  0.6200557  0.7226413    0.00000       Uiso       1.00
      C209          C  0.7809901  0.5962917  0.7244176    0.00000       Uiso       1.00
      C210          C  0.8033822  0.5961707  0.7459443    0.00000       Uiso       1.00
      C211          C  0.8318802  0.6206567  0.7651531    0.00000       Uiso       1.00
      C212          C  0.8357986  0.6446725  0.7625201    0.00000       Uiso       1.00
      C213          C  0.8104026  0.6438688  0.7431232    0.00000       Uiso       1.00
        O6          O  0.7381017  0.5999742  0.6785929    0.00000       Uiso       1.00
      H160          H  0.7605002  0.5777202  0.7090787    0.00000       Uiso       1.00
      H161          H  0.7982475  0.5768137  0.7470744    0.00000       Uiso       1.00
      H162          H  0.8604965  0.6649135  0.7743634    0.00000       Uiso       1.00
        B1          B  0.7266499  0.6132552  0.6622828    0.00000       Uiso       1.00
        B2          B  0.9511346  0.6134136  0.8867280    0.00000       Uiso       1.00
        B3          B  0.9509580  0.8377096  0.8866010    0.00000       Uiso       1.00
      C214          C  0.2318437  0.3553170  0.6983294    0.00000       Uiso       1.00
      C215          C  0.2084798  0.3321138  0.7190557    0.00000       Uiso       1.00
      C216          C  0.2052158  0.3085463  0.7171932    0.00000       Uiso       1.00
      C217          C  0.1834393  0.2863008  0.7389926    0.00000       Uiso       1.00
      C218          C  0.1664010  0.2880019  0.7641026    0.00000       Uiso       1.00
      C219          C  0.1706166  0.3122011  0.7657544    0.00000       Uiso       1.00
      C220          C  0.1886922  0.3331505  0.7426329    0.00000       Uiso       1.00
        O7          O  0.2544071  0.3582759  0.6746604    0.00000       Uiso       1.00
      H163          H  0.2196334  0.3074449  0.6987010    0.00000       Uiso       1.00
      H164          H  0.1806349  0.2680841  0.7359999    0.00000       Uiso       1.00
      H165          H  0.1622050  0.3159054  0.7859885    0.00000       Uiso       1.00
      C221          C  0.0747590  0.3764613  0.8552791    0.00000       Uiso       1.00
      C222          C  0.0953035  0.3762881  0.8320662    0.00000       Uiso       1.00
      C223          C  0.1137657  0.3965994  0.8085034    0.00000       Uiso       1.00
      C224          C  0.1360424  0.3970692  0.7862648    0.00000       Uiso       1.00
      C225          C  0.1424107  0.3783289  0.7879709    0.00000       Uiso       1.00
      C226          C  0.1240383  0.3583283  0.8121598    0.00000       Uiso       1.00
      C227          C  0.0980318  0.3554523  0.8330989    0.00000       Uiso       1.00
        O8          O  0.0707478  0.3960942  0.8582545    0.00000       Uiso       1.00
      H166          H  0.1108233  0.4121340  0.8074052    0.00000       Uiso       1.00
      H167          H  0.1484803  0.4124912  0.7680554    0.00000       Uiso       1.00
      H168          H  0.1321396  0.3462056  0.8158770    0.00000       Uiso       1.00
      C228          C  0.0536110  0.1983053  0.8764727    0.00000       Uiso       1.00
      C229          C  0.0510907  0.2190069  0.8762852    0.00000       Uiso       1.00
      C230          C  0.0256310  0.2171258  0.8965725    0.00000       Uiso       1.00
      C231          C  0.0251507  0.2389093  0.8970270    0.00000       Uiso       1.00
      C232          C  0.0519578  0.2640204  0.8782872    0.00000       Uiso       1.00
      C233          C  0.0778238  0.2656809  0.8583070    0.00000       Uiso       1.00
      C234          C  0.0756943  0.2425779  0.8554562    0.00000       Uiso       1.00
        O9          O  0.0329038  0.1746422  0.8960832    0.00000       Uiso       1.00
      H169          H  0.0060586  0.1986363  0.9120983    0.00000       Uiso       1.00
      H170          H  0.0039323  0.2359101  0.9124362    0.00000       Uiso       1.00
      H171          H  0.1017516  0.2859116  0.8461834    0.00000       Uiso       1.00
      C235          C  0.0794640  0.2005925  0.8572893    0.00000       Uiso       1.00
      C236          C  0.1026087  0.2226427  0.8353666    0.00000       Uiso       1.00
      C237          C  0.1282284  0.2244612  0.8153310    0.00000       Uiso       1.00
      C238          C  0.1499055  0.2460029  0.7928302    0.00000       Uiso       1.00
      C239          C  0.1445586  0.2651657  0.7887750    0.00000       Uiso       1.00
      C240          C  0.1178258  0.2624866  0.8088164    0.00000       Uiso       1.00
      C241          C  0.0992177  0.2430914  0.8334099    0.00000       Uiso       1.00
       O10          O  0.0786669  0.1786134  0.8618884    0.00000       Uiso       1.00
      H172          H  0.1314976  0.2091454  0.8172696    0.00000       Uiso       1.00
      H173          H  0.1704652  0.2471817  0.7786456    0.00000       Uiso       1.00
      H174          H  0.1094043  0.2743075  0.8043199    0.00000       Uiso       1.00
      C242          C  0.0577987  0.3572423  0.8788209    0.00000       Uiso       1.00
      C243          C  0.0578950  0.3353033  0.8798985    0.00000       Uiso       1.00
      C244          C  0.0396003  0.3152238  0.9036666    0.00000       Uiso       1.00
      C245          C  0.0386231  0.2927149  0.9037857    0.00000       Uiso       1.00
      C246          C  0.0537995  0.2886965  0.8792932    0.00000       Uiso       1.00
      C247          C  0.0712332  0.3087801  0.8552713    0.00000       Uiso       1.00
      C248          C  0.0764385  0.3333756  0.8560775    0.00000       Uiso       1.00
       O11          O  0.0404075  0.3618343  0.8999988    0.00000       Uiso       1.00
      H175          H  0.0261917  0.3171423  0.9222466    0.00000       Uiso       1.00
      H176          H  0.0255587  0.2785016  0.9231482    0.00000       Uiso       1.00
      H177          H  0.0785971  0.3043149  0.8350270    0.00000       Uiso       1.00
      C249          C  0.2361660  0.3788593  0.7005938    0.00000       Uiso       1.00
      C250          C  0.2153266  0.3799431  0.7226414    0.00000       Uiso       1.00
      C251          C  0.2190088  0.4037071  0.7244180    0.00000       Uiso       1.00
      C252          C  0.1966166  0.4038280  0.7459448    0.00000       Uiso       1.00
      C253          C  0.1681186  0.3793418  0.7651535    0.00000       Uiso       1.00
      C254          C  0.1642002  0.3553260  0.7625203    0.00000       Uiso       1.00
      C255          C  0.1895963  0.3561299  0.7431232    0.00000       Uiso       1.00
       O12          O  0.2618972  0.4000249  0.6785930    0.00000       Uiso       1.00
      H178          H  0.2394986  0.4222787  0.7090793    0.00000       Uiso       1.00
      H179          H  0.2017514  0.4231850  0.7470752    0.00000       Uiso       1.00
      H180          H  0.1395023  0.3350849  0.7743634    0.00000       Uiso       1.00
        B4          B  0.2733490  0.3867441  0.6622827    0.00000       Uiso       1.00
        B5          B  0.0488640  0.3865841  0.8867292    0.00000       Uiso       1.00
        B6          B  0.0490407  0.1622881  0.8865993    0.00000       Uiso       1.00
      C256          C  0.4787908  0.3553183  0.3016687    0.00000       Uiso       1.00
      C257          C  0.4557486  0.3321153  0.2809423    0.00000       Uiso       1.00
      C258          C  0.4118776  0.3085478  0.2828046    0.00000       Uiso       1.00
      C259          C  0.3891633  0.2863024  0.2610051    0.00000       Uiso       1.00
      C260          C  0.4096040  0.2880037  0.2358952    0.00000       Uiso       1.00
      C261          C  0.4537866  0.3122029  0.2342435    0.00000       Uiso       1.00
      C262          C  0.4776097  0.3331521  0.2573651    0.00000       Uiso       1.00
       O13          O  0.4621451  0.3582771  0.3253378    0.00000       Uiso       1.00
      H181          H  0.3952571  0.3074463  0.3012968    0.00000       Uiso       1.00
      H182          H  0.3555344  0.2680857  0.2639976    0.00000       Uiso       1.00
      H183          H  0.4696069  0.3159073  0.2140094    0.00000       Uiso       1.00
      C263          C  0.6781650  0.3764637  0.1447192    0.00000       Uiso       1.00
      C264          C  0.6572741  0.3762904  0.1679320    0.00000       Uiso       1.00
      C265          C  0.6794341  0.3966014  0.1914950    0.00000       Uiso       1.00
      C266          C  0.6580970  0.3970712  0.2137337    0.00000       Uiso       1.00
      C267          C  0.6142482  0.3783308  0.2120274    0.00000       Uiso       1.00
      C268          C  0.5926197  0.3583305  0.1878384    0.00000       Uiso       1.00
      C269          C  0.6128743  0.3554546  0.1668993    0.00000       Uiso       1.00
       O14          O  0.7214421  0.3960966  0.1417440    0.00000       Uiso       1.00
      H184          H  0.7134459  0.4121361  0.1925934    0.00000       Uiso       1.00
      H185          H  0.6765029  0.4124931  0.2319431    0.00000       Uiso       1.00
      H186          H  0.5602730  0.3462078  0.1841211    0.00000       Uiso       1.00
      C270          C  0.3430018  0.1983078  0.1235244    0.00000       Uiso       1.00
      C271          C  0.3869253  0.2190095  0.1237121    0.00000       Uiso       1.00
      C272          C  0.4086230  0.2171285  0.1034247    0.00000       Uiso       1.00
      C273          C  0.4526702  0.2389120  0.1029705    0.00000       Uiso       1.00
      C274          C  0.4760851  0.2640230  0.1217103    0.00000       Uiso       1.00
      C275          C  0.4535399  0.2656834  0.1416906    0.00000       Uiso       1.00
      C276          C  0.4094634  0.2425803  0.1445413    0.00000       Uiso       1.00
       O15          O  0.3163830  0.1746449  0.1039137    0.00000       Uiso       1.00
      H187          H  0.3912165  0.1986391  0.0878988    0.00000       Uiso       1.00
      H188          H  0.4678901  0.2359129  0.0875611    0.00000       Uiso       1.00
      H189          H  0.4700733  0.2859139  0.1538143    0.00000       Uiso       1.00
      C277          C  0.3217231  0.2005949  0.1427078    0.00000       Uiso       1.00
      C278          C  0.3426787  0.2226450  0.1646307    0.00000       Uiso       1.00
      C279          C  0.3206958  0.2244633  0.1846663    0.00000       Uiso       1.00
      C280          C  0.3421018  0.2460049  0.2071672    0.00000       Uiso       1.00
      C281          C  0.3857742  0.2651677  0.2112225    0.00000       Uiso       1.00
      C282          C  0.4071490  0.2624887  0.1911812    0.00000       Uiso       1.00
      C283          C  0.3869669  0.2430937  0.1665875    0.00000       Uiso       1.00
       O16          O  0.2785620  0.1786158  0.1381086    0.00000       Uiso       1.00
      H190          H  0.2867949  0.2091475  0.1827276    0.00000       Uiso       1.00
      H191          H  0.3238996  0.2471836  0.2213518    0.00000       Uiso       1.00
      H192          H  0.4392122  0.2743096  0.1956777    0.00000       Uiso       1.00
      C284          C  0.6566876  0.3572448  0.1211773    0.00000       Uiso       1.00
      C285          C  0.6127135  0.3353059  0.1200994    0.00000       Uiso       1.00
      C286          C  0.5908493  0.3152266  0.0963312    0.00000       Uiso       1.00
      C287          C  0.5468088  0.2927177  0.0962121    0.00000       Uiso       1.00
      C288          C  0.5235955  0.2886991  0.1207045    0.00000       Uiso       1.00
      C289          C  0.5463287  0.3087825  0.1447265    0.00000       Uiso       1.00
      C290          C  0.5903144  0.3333780  0.1439205    0.00000       Uiso       1.00
       O17          O  0.6832631  0.3618370  0.0999994    0.00000       Uiso       1.00
      H193          H  0.6080951  0.3171452  0.0777512    0.00000       Uiso       1.00
      H194          H  0.5314468  0.2785044  0.0768494    0.00000       Uiso       1.00
      H195          H  0.5300344  0.3043172  0.1649708    0.00000       Uiso       1.00
      C291          C  0.5215531  0.3788607  0.2994045    0.00000       Uiso       1.00
      C292          C  0.5445601  0.3799446  0.2773569    0.00000       Uiso       1.00
      C293          C  0.5884060  0.4037086  0.2755804    0.00000       Uiso       1.00
      C294          C  0.6110400  0.4038296  0.2540537    0.00000       Uiso       1.00
      C295          C  0.5905659  0.3793436  0.2348448    0.00000       Uiso       1.00
      C296          C  0.5464528  0.3553278  0.2374779    0.00000       Uiso       1.00
      C297          C  0.5226643  0.3561315  0.2568749    0.00000       Uiso       1.00
       O18          O  0.5381529  0.4000261  0.3214054    0.00000       Uiso       1.00
      H196          H  0.6050592  0.4222802  0.2909194    0.00000       Uiso       1.00
      H197          H  0.6446192  0.4231867  0.2529234    0.00000       Uiso       1.00
      H198          H  0.5306687  0.3350868  0.2256346    0.00000       Uiso       1.00
        B7          B  0.5001393  0.3867451  0.3377157    0.00000       Uiso       1.00
        B8          B  0.7243059  0.3865867  0.1132691    0.00000       Uiso       1.00
        B9          B  0.2755379  0.1622907  0.1133975    0.00000       Uiso       1.00
      C298          C  0.5212085  0.6446834  0.3016704    0.00000       Uiso       1.00
      C299          C  0.5442507  0.6678866  0.2809442    0.00000       Uiso       1.00
      C300          C  0.5881217  0.6914540  0.2828065    0.00000       Uiso       1.00
      C301          C  0.6108359  0.7136995  0.2610072    0.00000       Uiso       1.00
      C302          C  0.5903953  0.7119984  0.2358973    0.00000       Uiso       1.00
      C303          C  0.5462127  0.6877992  0.2342456    0.00000       Uiso       1.00
      C304          C  0.5223897  0.6668499  0.2573671    0.00000       Uiso       1.00
       O19          O  0.5378541  0.6417243  0.3253394    0.00000       Uiso       1.00
      H199          H  0.6047421  0.6925554  0.3012986    0.00000       Uiso       1.00
      H200          H  0.6444649  0.7319162  0.2639997    0.00000       Uiso       1.00
      H201          H  0.5303924  0.6840950  0.2140116    0.00000       Uiso       1.00
      C305          C  0.3218344  0.6235391  0.1447218    0.00000       Uiso       1.00
      C306          C  0.3427253  0.6237122  0.1679345    0.00000       Uiso       1.00
      C307          C  0.3205653  0.6034010  0.1914973    0.00000       Uiso       1.00
      C308          C  0.3419023  0.6029311  0.2137359    0.00000       Uiso       1.00
      C309          C  0.3857512  0.6216714  0.2120296    0.00000       Uiso       1.00
      C310          C  0.4073797  0.6416720  0.1878408    0.00000       Uiso       1.00
      C311          C  0.3871250  0.6445480  0.1669018    0.00000       Uiso       1.00
       O20          O  0.2785573  0.6039061  0.1417465    0.00000       Uiso       1.00
      H202          H  0.2865535  0.5878663  0.1925957    0.00000       Uiso       1.00
      H203          H  0.3234964  0.5875091  0.2319453    0.00000       Uiso       1.00
      H204          H  0.4397264  0.6537947  0.1841234    0.00000       Uiso       1.00
      C312          C  0.6569976  0.8016950  0.1235272    0.00000       Uiso       1.00
      C313          C  0.6130741  0.7809934  0.1237150    0.00000       Uiso       1.00
      C314          C  0.5913765  0.7828745  0.1034277    0.00000       Uiso       1.00
      C315          C  0.5473292  0.7610910  0.1029735    0.00000       Uiso       1.00
      C316          C  0.5239144  0.7359799  0.1217132    0.00000       Uiso       1.00
      C317          C  0.5464596  0.7343194  0.1416933    0.00000       Uiso       1.00
      C318          C  0.5905361  0.7574225  0.1445440    0.00000       Uiso       1.00
       O21          O  0.6836165  0.8253582  0.1039168    0.00000       Uiso       1.00
      H205          H  0.6087830  0.8013640  0.0879020    0.00000       Uiso       1.00
      H206          H  0.5321093  0.7640903  0.0875642    0.00000       Uiso       1.00
      H207          H  0.5299261  0.7140888  0.1538168    0.00000       Uiso       1.00
      C319          C  0.6782763  0.7994078  0.1427106    0.00000       Uiso       1.00
      C320          C  0.6573208  0.7773576  0.1646332    0.00000       Uiso       1.00
      C321          C  0.6793036  0.7755391  0.1846687    0.00000       Uiso       1.00
      C322          C  0.6578976  0.7539974  0.2071695    0.00000       Uiso       1.00
      C323          C  0.6142251  0.7348346  0.2112248    0.00000       Uiso       1.00
      C324          C  0.5928504  0.7375137  0.1911836    0.00000       Uiso       1.00
      C325          C  0.6130325  0.7569090  0.1665901    0.00000       Uiso       1.00
       O22          O  0.7214374  0.8213870  0.1381113    0.00000       Uiso       1.00
      H208          H  0.7132044  0.7908550  0.1827300    0.00000       Uiso       1.00
      H209          H  0.6760998  0.7528186  0.2213540    0.00000       Uiso       1.00
      H210          H  0.5607871  0.7256928  0.1956802    0.00000       Uiso       1.00
      C326          C  0.3433118  0.6427581  0.1211800    0.00000       Uiso       1.00
      C327          C  0.3872860  0.6646970  0.1201022    0.00000       Uiso       1.00
      C328          C  0.4091501  0.6847765  0.0963341    0.00000       Uiso       1.00
      C329          C  0.4531906  0.7072854  0.0962149    0.00000       Uiso       1.00
      C330          C  0.4764039  0.7113038  0.1207073    0.00000       Uiso       1.00
      C331          C  0.4536707  0.6912202  0.1447292    0.00000       Uiso       1.00
      C332          C  0.4096850  0.6666247  0.1439231    0.00000       Uiso       1.00
       O23          O  0.3167364  0.6381660  0.1000022    0.00000       Uiso       1.00
      H211          H  0.3919044  0.6828580  0.0777542    0.00000       Uiso       1.00
      H212          H  0.4685527  0.7214988  0.0768524    0.00000       Uiso       1.00
      H213          H  0.4699650  0.6956854  0.1649735    0.00000       Uiso       1.00
      C333          C  0.4784462  0.6211411  0.2994062    0.00000       Uiso       1.00
      C334          C  0.4554392  0.6200573  0.2773587    0.00000       Uiso       1.00
      C335          C  0.4115933  0.5962932  0.2755822    0.00000       Uiso       1.00
      C336          C  0.3889593  0.5961723  0.2540555    0.00000       Uiso       1.00
      C337          C  0.4094334  0.6206585  0.2348469    0.00000       Uiso       1.00
      C338          C  0.4535465  0.6446743  0.2374800    0.00000       Uiso       1.00
      C339          C  0.4773350  0.6438705  0.2568769    0.00000       Uiso       1.00
       O24          O  0.4618463  0.5999754  0.3214069    0.00000       Uiso       1.00
      H214          H  0.3949401  0.5777216  0.2909209    0.00000       Uiso       1.00
      H215          H  0.3553800  0.5768153  0.2529252    0.00000       Uiso       1.00
      H216          H  0.4693307  0.6649154  0.2256369    0.00000       Uiso       1.00
       B10          B  0.4998599  0.6132563  0.3377171    0.00000       Uiso       1.00
       B11          B  0.2756935  0.6134163  0.1132719    0.00000       Uiso       1.00
       B12          B  0.7244615  0.8377122  0.1134005    0.00000       Uiso       1.00
