data_46
_audit_creation_date              0000-00-00
_audit_creation_method            'LanYouShi'
_symmetry_space_group_name_H-M    'P1'
_cell_length_a                    51.8977013
_cell_length_b                    51.8977013
_cell_length_c                    51.8977013
_cell_angle_alpha                 119.9999008
_cell_angle_beta                  120.0000000
_cell_angle_gamma                 60.0000000
loop_
_atom_site_label
_atom_site_type_symbol
_atom_site_fract_x
_atom_site_fract_y
_atom_site_fract_z
_atom_site_U_iso_or_equiv
_atom_site_adp_type
_atom_site_occupancy
        C1          C  0.2965279  0.5370805  0.4168043    0.00000       Uiso       1.00
        C2          C  0.3129158  0.5347627  0.4006255    0.00000       Uiso       1.00
        C3          C  0.3452505  0.5300959  0.4144401    0.00000       Uiso       1.00
        C4          C  0.3129158  0.5347626  0.4470533    0.00000       Uiso       1.00
        C5          C  0.3452505  0.5300958  0.4609067    0.00000       Uiso       1.00
        C6          C  0.3621376  0.5287957  0.4454668    0.00000       Uiso       1.00
        H1          H  0.5163938  0.5996448  0.4732082    0.00000       Uiso       1.00
        H2          H  0.5163938  0.5996445  0.6428307    0.00000       Uiso       1.00
        H3          H  0.2999045  0.5366796  0.3759664    0.00000       Uiso       1.00
        C7          C  0.5831954  0.5831951  0.4629189    0.00000       Uiso       1.00
        C8          C  0.5529464  0.5993741  0.4652368    0.00000       Uiso       1.00
        C9          C  0.5390931  0.5855594  0.4699036    0.00000       Uiso       1.00
       C10          C  0.5993744  0.5529461  0.4652369    0.00000       Uiso       1.00
       C11          C  0.5855598  0.5390928  0.4699036    0.00000       Uiso       1.00
       C12          C  0.5545331  0.5545326  0.4712038    0.00000       Uiso       1.00
        H4          H  0.3571690  0.5267913  0.4003546    0.00000       Uiso       1.00
        H5          H  0.5267918  0.3571687  0.4003548    0.00000       Uiso       1.00
        H6          H  0.6240335  0.5393815  0.4633200    0.00000       Uiso       1.00
       C13          C  0.5831955  0.5831946  0.7034718    0.00000       Uiso       1.00
       C14          C  0.5993744  0.5529456  0.6870840    0.00000       Uiso       1.00
       C15          C  0.5855598  0.5390924  0.6547493    0.00000       Uiso       1.00
       C16          C  0.5529465  0.5993735  0.6870839    0.00000       Uiso       1.00
       C17          C  0.5390931  0.5855590  0.6547492    0.00000       Uiso       1.00
       C18          C  0.5545331  0.5545322  0.6378621    0.00000       Uiso       1.00
        H7          H  0.5267918  0.3571685  0.4836061    0.00000       Uiso       1.00
        H8          H  0.3571690  0.5267911  0.4836059    0.00000       Uiso       1.00
        H9          H  0.5393819  0.6240326  0.7000952    0.00000       Uiso       1.00
       C19          C  0.5370812  0.2965275  0.4168046    0.00000       Uiso       1.00
       C20          C  0.5347633  0.3129154  0.4470535    0.00000       Uiso       1.00
       C21          C  0.5300965  0.3452501  0.4609068    0.00000       Uiso       1.00
       C22          C  0.5347633  0.3129155  0.4006256    0.00000       Uiso       1.00
       C23          C  0.5300965  0.3452502  0.4144402    0.00000       Uiso       1.00
       C24          C  0.5287963  0.3621372  0.4454670    0.00000       Uiso       1.00
       H10          H  0.5996453  0.5163931  0.6428308    0.00000       Uiso       1.00
       H11          H  0.5996453  0.5163935  0.4732083    0.00000       Uiso       1.00
       C25          C  0.5000000  0.4999995  0.4999998    0.00000       Uiso       1.00
       H12          H  0.5366802  0.2999040  0.4606181    0.00000       Uiso       1.00
       Cl1         Cl  0.2928282  0.5377219  0.4679952    0.00000       Uiso       1.00
       Cl2         Cl  0.5377227  0.2928280  0.3625556    0.00000       Uiso       1.00
       Cl3         Cl  0.5320046  0.6374441  0.4622774    0.00000       Uiso       1.00
       Cl4         Cl  0.6374446  0.5320038  0.7071716    0.00000       Uiso       1.00
       C26          C  0.3968662  0.5228766  0.4600661    0.00000       Uiso       1.00
       C27          C  0.4113057  0.5347190  0.4535698    0.00000       Uiso       1.00
       C28          C  0.4440116  0.5283648  0.4665777    0.00000       Uiso       1.00
       C29          C  0.4160224  0.5048182  0.4802839    0.00000       Uiso       1.00
       C30          C  0.4484923  0.4990675  0.4938135    0.00000       Uiso       1.00
       C31          C  0.4633456  0.5107107  0.4874167    0.00000       Uiso       1.00
       H13          H  0.4912009  0.5617648  0.5154508    0.00000       Uiso       1.00
       H14          H  0.4687833  0.5406476  0.5461960    0.00000       Uiso       1.00
       H15          H  0.4062194  0.4941487  0.4850250    0.00000       Uiso       1.00
       H16          H  0.3973162  0.5487998  0.4381877    0.00000       Uiso       1.00
       C32          C  0.5399355  0.5403219  0.4771239    0.00000       Uiso       1.00
       C33          C  0.5197244  0.5594414  0.4951886    0.00000       Uiso       1.00
       C34          C  0.5061907  0.5462532  0.5009365    0.00000       Uiso       1.00
       C35          C  0.5464264  0.5075448  0.4652761    0.00000       Uiso       1.00
       C36          C  0.5334189  0.4942016  0.4716316    0.00000       Uiso       1.00
       C37          C  0.5125834  0.5133603  0.4892895    0.00000       Uiso       1.00
       H17          H  0.4538045  0.5367620  0.4593502    0.00000       Uiso       1.00
       H18          H  0.4845521  0.4624844  0.4382353    0.00000       Uiso       1.00
       H19          H  0.5618008  0.4920714  0.4511871    0.00000       Uiso       1.00
       H20          H  0.5149915  0.5846534  0.5058616    0.00000       Uiso       1.00
       C38          C  0.5403219  0.5399351  0.6031335    0.00000       Uiso       1.00
       C39          C  0.5594419  0.5197192  0.5839775    0.00000       Uiso       1.00
       C40          C  0.5462531  0.5061872  0.5515074    0.00000       Uiso       1.00
       C41          C  0.5075437  0.5464311  0.5886939    0.00000       Uiso       1.00
       C42          C  0.4942010  0.5334226  0.5559883    0.00000       Uiso       1.00
       C43          C  0.5133601  0.5125831  0.5366540    0.00000       Uiso       1.00
       H21          H  0.5367640  0.4538025  0.5312167    0.00000       Uiso       1.00
       H22          H  0.4624856  0.4845525  0.5088030    0.00000       Uiso       1.00
       H23          H  0.4920679  0.5618100  0.6026814    0.00000       Uiso       1.00
       H24          H  0.5846552  0.5149792  0.5937836    0.00000       Uiso       1.00
       C44          C  0.5228765  0.3968657  0.4596783    0.00000       Uiso       1.00
       C45          C  0.5347201  0.4113050  0.4924563    0.00000       Uiso       1.00
       C46          C  0.5283651  0.4440108  0.5057991    0.00000       Uiso       1.00
       C47          C  0.5048152  0.4160219  0.4405586    0.00000       Uiso       1.00
       C48          C  0.4990660  0.4484917  0.4537470    0.00000       Uiso       1.00
       C49          C  0.5107108  0.4633448  0.4866398    0.00000       Uiso       1.00
       H25          H  0.5617643  0.4911945  0.5375143    0.00000       Uiso       1.00
       H26          H  0.5406411  0.4687839  0.4632291    0.00000       Uiso       1.00
       H27          H  0.4941455  0.4062160  0.4153458    0.00000       Uiso       1.00
       H28          H  0.5488044  0.3973171  0.5079314    0.00000       Uiso       1.00
       C50          C  0.9694661  0.2965269  0.8491893    0.00000       Uiso       1.00
       C51          C  0.9856451  0.3129148  0.8515072    0.00000       Uiso       1.00
       C52          C  0.9718304  0.3452495  0.8561740    0.00000       Uiso       1.00
       C53          C  0.9392172  0.3129148  0.8515072    0.00000       Uiso       1.00
       C54          C  0.9253638  0.3452495  0.8561740    0.00000       Uiso       1.00
       C55          C  0.9408036  0.3621366  0.8574742    0.00000       Uiso       1.00
       H29          H  0.9130622  0.5163930  0.7866251    0.00000       Uiso       1.00
       H30          H  0.7434396  0.5163929  0.7866250    0.00000       Uiso       1.00
       H31          H  0.0103047  0.2999036  0.8495905    0.00000       Uiso       1.00
       C56          C  0.9233515  0.5831946  0.8030750    0.00000       Uiso       1.00
       C57          C  0.9210336  0.5529457  0.7868960    0.00000       Uiso       1.00
       C58          C  0.9163669  0.5390923  0.8007106    0.00000       Uiso       1.00
       C59          C  0.9210337  0.5993735  0.8333239    0.00000       Uiso       1.00
       C60          C  0.9163669  0.5855588  0.8471772    0.00000       Uiso       1.00
       C61          C  0.9150667  0.5545321  0.8317374    0.00000       Uiso       1.00
       H32          H  0.9859159  0.3571680  0.8594787    0.00000       Uiso       1.00
       H33          H  0.9859148  0.5267918  0.0291011    0.00000       Uiso       1.00
       H34          H  0.9229505  0.6240325  0.8468885    0.00000       Uiso       1.00
       C62          C  0.6827984  0.5831944  0.8030748    0.00000       Uiso       1.00
       C63          C  0.6991863  0.5993733  0.8333237    0.00000       Uiso       1.00
       C64          C  0.7315211  0.5855587  0.8471770    0.00000       Uiso       1.00
       C65          C  0.6991863  0.5529455  0.7868958    0.00000       Uiso       1.00
       C66          C  0.7315211  0.5390922  0.8007105    0.00000       Uiso       1.00
       C67          C  0.7484081  0.5545319  0.8317372    0.00000       Uiso       1.00
       H35          H  0.9026634  0.5267917  0.0291010    0.00000       Uiso       1.00
       H36          H  0.9026645  0.3571680  0.8594787    0.00000       Uiso       1.00
       H37          H  0.6861750  0.5393809  0.7622368    0.00000       Uiso       1.00
       C68          C  0.9694650  0.5370810  0.0897421    0.00000       Uiso       1.00
       C69          C  0.9392160  0.5347631  0.0733542    0.00000       Uiso       1.00
       C70          C  0.9253627  0.5300964  0.0410195    0.00000       Uiso       1.00
       C71          C  0.9856439  0.5347632  0.0733542    0.00000       Uiso       1.00
       C72          C  0.9718293  0.5300964  0.0410195    0.00000       Uiso       1.00
       C73          C  0.9408026  0.5287963  0.0241324    0.00000       Uiso       1.00
       H38          H  0.7434395  0.5996441  0.8698763    0.00000       Uiso       1.00
       H39          H  0.9130622  0.5996443  0.8698765    0.00000       Uiso       1.00
       C74          C  0.8862706  0.4999989  0.8862703    0.00000       Uiso       1.00
       H40          H  0.9256514  0.5366799  0.0863655    0.00000       Uiso       1.00
       Cl5         Cl  0.9182753  0.2928272  0.8485478    0.00000       Uiso       1.00
       Cl6         Cl  0.0237146  0.5377225  0.0934418    0.00000       Uiso       1.00
       Cl7         Cl  0.9239931  0.5320039  0.7488260    0.00000       Uiso       1.00
       Cl8         Cl  0.6790987  0.6374434  0.8542656    0.00000       Uiso       1.00
       C75          C  0.9262044  0.3968652  0.8633932    0.00000       Uiso       1.00
       C76          C  0.9327006  0.4113047  0.8515509    0.00000       Uiso       1.00
       C77          C  0.9196928  0.4440106  0.8579050    0.00000       Uiso       1.00
       C78          C  0.9059865  0.4160212  0.8814515    0.00000       Uiso       1.00
       C79          C  0.8924571  0.4484912  0.8872022    0.00000       Uiso       1.00
       C80          C  0.8988538  0.4633445  0.8755591    0.00000       Uiso       1.00
       H41          H  0.8708196  0.4911999  0.8245050    0.00000       Uiso       1.00
       H42          H  0.8400744  0.4687823  0.8456221    0.00000       Uiso       1.00
       H43          H  0.9012454  0.4062182  0.8921210    0.00000       Uiso       1.00
       H44          H  0.9480828  0.3973153  0.8374701    0.00000       Uiso       1.00
       C81          C  0.9091466  0.5399345  0.8459480    0.00000       Uiso       1.00
       C82          C  0.8910819  0.5197235  0.8268285    0.00000       Uiso       1.00
       C83          C  0.8853340  0.5061897  0.8400167    0.00000       Uiso       1.00
       C84          C  0.9209944  0.5464253  0.8787252    0.00000       Uiso       1.00
       C85          C  0.9146389  0.5334178  0.8920683    0.00000       Uiso       1.00
       C86          C  0.8969810  0.5125823  0.8729095    0.00000       Uiso       1.00
       H45          H  0.9269203  0.4538035  0.8495079    0.00000       Uiso       1.00
       H46          H  0.9480352  0.4845510  0.9237854    0.00000       Uiso       1.00
       H47          H  0.9350834  0.5617998  0.8941986    0.00000       Uiso       1.00
       H48          H  0.8804088  0.5149906  0.8016165    0.00000       Uiso       1.00
       C87          C  0.7831368  0.5403208  0.8463344    0.00000       Uiso       1.00
       C88          C  0.8022930  0.5594407  0.8665504    0.00000       Uiso       1.00
       C89          C  0.8347631  0.5462520  0.8800824    0.00000       Uiso       1.00
       C90          C  0.7975765  0.5075426  0.8398384    0.00000       Uiso       1.00
       C91          C  0.8302822  0.4941999  0.8528470    0.00000       Uiso       1.00
       C92          C  0.8496165  0.5133590  0.8736866    0.00000       Uiso       1.00
       H49          H  0.8550537  0.5367628  0.9324670    0.00000       Uiso       1.00
       H50          H  0.8774675  0.4624844  0.9017172    0.00000       Uiso       1.00
       H51          H  0.7835889  0.4920669  0.8244595    0.00000       Uiso       1.00
       H52          H  0.7924868  0.5846540  0.8712903    0.00000       Uiso       1.00
       C93          C  0.9265922  0.5228752  0.9894040    0.00000       Uiso       1.00
       C94          C  0.8938143  0.5347188  0.9749647    0.00000       Uiso       1.00
       C95          C  0.8804715  0.5283638  0.9422590    0.00000       Uiso       1.00
       C96          C  0.9457120  0.5048139  0.9702480    0.00000       Uiso       1.00
       C97          C  0.9325235  0.4990648  0.9377781    0.00000       Uiso       1.00
       C98          C  0.8996307  0.5107096  0.9229250    0.00000       Uiso       1.00
       H53          H  0.8487562  0.5617632  0.8950753    0.00000       Uiso       1.00
       H54          H  0.9230414  0.5406399  0.9174860    0.00000       Uiso       1.00
       H55          H  0.9709249  0.4941442  0.9800539    0.00000       Uiso       1.00
       H56          H  0.8783391  0.5488030  0.9889525    0.00000       Uiso       1.00
       C99          C  0.5370799  0.9694656  0.0897418    0.00000       Uiso       1.00
      C100          C  0.5347620  0.9856446  0.0733538    0.00000       Uiso       1.00
      C101          C  0.5300952  0.9718301  0.0410191    0.00000       Uiso       1.00
      C102          C  0.5347620  0.9392167  0.0733538    0.00000       Uiso       1.00
      C103          C  0.5300953  0.9253634  0.0410191    0.00000       Uiso       1.00
      C104          C  0.5287951  0.9408033  0.0241321    0.00000       Uiso       1.00
       H57          H  0.5996451  0.9130610  0.8698762    0.00000       Uiso       1.00
       H58          H  0.5996453  0.7434382  0.8698762    0.00000       Uiso       1.00
       H59          H  0.5366794  0.0103030  0.0863651    0.00000       Uiso       1.00
      C105          C  0.5831953  0.9233505  0.8030747    0.00000       Uiso       1.00
      C106          C  0.5993742  0.9210325  0.8333236    0.00000       Uiso       1.00
      C107          C  0.5855597  0.9163657  0.8471769    0.00000       Uiso       1.00
      C108          C  0.5529463  0.9210326  0.7868958    0.00000       Uiso       1.00
      C109          C  0.5390930  0.9163658  0.8007103    0.00000       Uiso       1.00
      C110          C  0.5545329  0.9150655  0.8317370    0.00000       Uiso       1.00
       H60          H  0.5267906  0.9859156  0.0291007    0.00000       Uiso       1.00
       H61          H  0.3571688  0.9859144  0.8594781    0.00000       Uiso       1.00
       H62          H  0.5393817  0.9229496  0.7622367    0.00000       Uiso       1.00
      C111          C  0.5831954  0.6827973  0.8030747    0.00000       Uiso       1.00
      C112          C  0.5529464  0.6991852  0.7868958    0.00000       Uiso       1.00
      C113          C  0.5390931  0.7315199  0.8007103    0.00000       Uiso       1.00
      C114          C  0.5993744  0.6991851  0.8333236    0.00000       Uiso       1.00
      C115          C  0.5855597  0.7315198  0.8471769    0.00000       Uiso       1.00
      C116          C  0.5545329  0.7484069  0.8317370    0.00000       Uiso       1.00
       H63          H  0.3571689  0.9026630  0.8594781    0.00000       Uiso       1.00
       H64          H  0.5267906  0.9026641  0.0291007    0.00000       Uiso       1.00
       H65          H  0.6240335  0.6861739  0.8468883    0.00000       Uiso       1.00
      C117          C  0.2965277  0.9694645  0.8491887    0.00000       Uiso       1.00
      C118          C  0.3129157  0.9392156  0.8515067    0.00000       Uiso       1.00
      C119          C  0.3452504  0.9253623  0.8561735    0.00000       Uiso       1.00
      C120          C  0.3129156  0.9856435  0.8515067    0.00000       Uiso       1.00
      C121          C  0.3452504  0.9718289  0.8561735    0.00000       Uiso       1.00
      C122          C  0.3621375  0.9408022  0.8574737    0.00000       Uiso       1.00
       H66          H  0.5163938  0.7434384  0.7866248    0.00000       Uiso       1.00
       H67          H  0.5163937  0.9130611  0.7866248    0.00000       Uiso       1.00
      C123          C  0.4999999  0.8862693  0.8862700    0.00000       Uiso       1.00
       H68          H  0.2999044  0.9256510  0.8495898    0.00000       Uiso       1.00
       Cl9         Cl  0.5377215  0.9182747  0.0934414    0.00000       Uiso       1.00
      Cl10         Cl  0.2928286  0.0237130  0.8485473    0.00000       Uiso       1.00
      Cl11         Cl  0.6374443  0.9239919  0.8542655    0.00000       Uiso       1.00
      Cl12         Cl  0.5320045  0.6790977  0.7488256    0.00000       Uiso       1.00
      C124          C  0.5228770  0.9262028  0.9894037    0.00000       Uiso       1.00
      C125          C  0.5347193  0.9326990  0.9749643    0.00000       Uiso       1.00
      C126          C  0.5283651  0.9196912  0.9422583    0.00000       Uiso       1.00
      C127          C  0.5048187  0.9059849  0.9702476    0.00000       Uiso       1.00
      C128          C  0.4990680  0.8924555  0.9377776    0.00000       Uiso       1.00
      C129          C  0.5107111  0.8988523  0.9229243    0.00000       Uiso       1.00
       H69          H  0.5617653  0.8708183  0.8950691    0.00000       Uiso       1.00
       H70          H  0.5406481  0.8400729  0.9174867    0.00000       Uiso       1.00
       H71          H  0.4941492  0.9012437  0.9800506    0.00000       Uiso       1.00
       H72          H  0.5488002  0.9480811  0.9889536    0.00000       Uiso       1.00
      C130          C  0.5403222  0.9091454  0.8463346    0.00000       Uiso       1.00
      C131          C  0.5594418  0.8910806  0.8665456    0.00000       Uiso       1.00
      C132          C  0.5462536  0.8853326  0.8800793    0.00000       Uiso       1.00
      C133          C  0.5075450  0.9209931  0.8398437    0.00000       Uiso       1.00
      C134          C  0.4942019  0.9146376  0.8528511    0.00000       Uiso       1.00
      C135          C  0.5133607  0.8969796  0.8736867    0.00000       Uiso       1.00
       H73          H  0.5367623  0.9269189  0.9324654    0.00000       Uiso       1.00
       H74          H  0.4624847  0.9480337  0.9017178    0.00000       Uiso       1.00
       H75          H  0.4920716  0.9350822  0.8244692    0.00000       Uiso       1.00
       H76          H  0.5846538  0.8804075  0.8712785    0.00000       Uiso       1.00
      C136          C  0.5399358  0.7831356  0.8459482    0.00000       Uiso       1.00
      C137          C  0.5197198  0.8022917  0.8268282    0.00000       Uiso       1.00
      C138          C  0.5061877  0.8347618  0.8400170    0.00000       Uiso       1.00
      C139          C  0.5464318  0.7975751  0.8787264    0.00000       Uiso       1.00
      C140          C  0.5334232  0.8302807  0.8920690    0.00000       Uiso       1.00
      C141          C  0.5125836  0.8496150  0.8729100    0.00000       Uiso       1.00
       H77          H  0.4538030  0.8550524  0.8495060    0.00000       Uiso       1.00
       H78          H  0.4845529  0.8774660  0.9237844    0.00000       Uiso       1.00
       H79          H  0.5618107  0.7835875  0.8942021    0.00000       Uiso       1.00
       H80          H  0.5149798  0.7924857  0.8016150    0.00000       Uiso       1.00
      C142          C  0.3968660  0.9265909  0.8633934    0.00000       Uiso       1.00
      C143          C  0.4113054  0.8938129  0.8515499    0.00000       Uiso       1.00
      C144          C  0.4440112  0.8804701  0.8579050    0.00000       Uiso       1.00
      C145          C  0.4160222  0.9457105  0.8814547    0.00000       Uiso       1.00
      C146          C  0.4484921  0.9325221  0.8872039    0.00000       Uiso       1.00
      C147          C  0.4633451  0.8996293  0.8755592    0.00000       Uiso       1.00
       H81          H  0.4911950  0.8487549  0.8245057    0.00000       Uiso       1.00
       H82          H  0.4687842  0.9230401  0.8456290    0.00000       Uiso       1.00
       H83          H  0.4062162  0.9709233  0.8921244    0.00000       Uiso       1.00
       H84          H  0.3973175  0.8783377  0.8374656    0.00000       Uiso       1.00
      C148          C  0.2965276  0.9694655  0.4168043    0.00000       Uiso       1.00
      C149          C  0.3129156  0.9856445  0.4470533    0.00000       Uiso       1.00
      C150          C  0.3452503  0.9718298  0.4609067    0.00000       Uiso       1.00
      C151          C  0.3129156  0.9392166  0.4006255    0.00000       Uiso       1.00
      C152          C  0.3452503  0.9253632  0.4144401    0.00000       Uiso       1.00
      C153          C  0.3621374  0.9408031  0.4454668    0.00000       Uiso       1.00
       H85          H  0.5163937  0.9130614  0.6428307    0.00000       Uiso       1.00
       H86          H  0.5163937  0.7434391  0.4732082    0.00000       Uiso       1.00
       H87          H  0.2999048  0.0103028  0.4606179    0.00000       Uiso       1.00
      C154          C  0.5831953  0.9233508  0.7034718    0.00000       Uiso       1.00
      C155          C  0.5529463  0.9210328  0.6870839    0.00000       Uiso       1.00
      C156          C  0.5390930  0.9163661  0.6547492    0.00000       Uiso       1.00
      C157          C  0.5993742  0.9210329  0.6870840    0.00000       Uiso       1.00
      C158          C  0.5855595  0.9163662  0.6547493    0.00000       Uiso       1.00
      C159          C  0.5545328  0.9150660  0.6378621    0.00000       Uiso       1.00
       H88          H  0.3571687  0.9859153  0.4836059    0.00000       Uiso       1.00
       H89          H  0.5267915  0.9859154  0.4836061    0.00000       Uiso       1.00
       H90          H  0.6240333  0.9229497  0.7000953    0.00000       Uiso       1.00
      C160          C  0.5831953  0.6827980  0.4629189    0.00000       Uiso       1.00
      C161          C  0.5993744  0.6991860  0.4652369    0.00000       Uiso       1.00
      C162          C  0.5855597  0.7315207  0.4699036    0.00000       Uiso       1.00
      C163          C  0.5529464  0.6991860  0.4652368    0.00000       Uiso       1.00
      C164          C  0.5390931  0.7315207  0.4699036    0.00000       Uiso       1.00
      C165          C  0.5545329  0.7484078  0.4712038    0.00000       Uiso       1.00
       H91          H  0.5267915  0.9026642  0.4003548    0.00000       Uiso       1.00
       H92          H  0.3571688  0.9026641  0.4003546    0.00000       Uiso       1.00
       H93          H  0.5393818  0.6861746  0.4633200    0.00000       Uiso       1.00
      C166          C  0.5370808  0.9694657  0.4168046    0.00000       Uiso       1.00
      C167          C  0.5347629  0.9392168  0.4006256    0.00000       Uiso       1.00
      C168          C  0.5300962  0.9253634  0.4144402    0.00000       Uiso       1.00
      C169          C  0.5347629  0.9856446  0.4470535    0.00000       Uiso       1.00
      C170          C  0.5300961  0.9718300  0.4609068    0.00000       Uiso       1.00
      C171          C  0.5287960  0.9408032  0.4454670    0.00000       Uiso       1.00
       H94          H  0.5996451  0.7434391  0.4732083    0.00000       Uiso       1.00
       H95          H  0.5996451  0.9130615  0.6428308    0.00000       Uiso       1.00
      C172          C  0.4999997  0.8862702  0.5000001    0.00000       Uiso       1.00
       H96          H  0.5366798  0.9256523  0.3759666    0.00000       Uiso       1.00
      Cl13         Cl  0.2928280  0.9182748  0.3625554    0.00000       Uiso       1.00
      Cl14         Cl  0.5377228  0.0237141  0.4679953    0.00000       Uiso       1.00
      Cl15         Cl  0.5320044  0.9239922  0.7071715    0.00000       Uiso       1.00
      Cl16         Cl  0.6374444  0.6790984  0.4622775    0.00000       Uiso       1.00
      C173          C  0.3968660  0.9262039  0.4596771    0.00000       Uiso       1.00
      C174          C  0.4113055  0.9327000  0.4924552    0.00000       Uiso       1.00
      C175          C  0.4440114  0.9196921  0.5057990    0.00000       Uiso       1.00
      C176          C  0.4160221  0.9059860  0.4405570    0.00000       Uiso       1.00
      C177          C  0.4484921  0.8924565  0.4537469    0.00000       Uiso       1.00
      C178          C  0.4633453  0.8988532  0.4866400    0.00000       Uiso       1.00
       H97          H  0.4912007  0.8708190  0.5375153    0.00000       Uiso       1.00
       H98          H  0.4687831  0.8400739  0.4632354    0.00000       Uiso       1.00
       H99          H  0.4062191  0.9012449  0.4153435    0.00000       Uiso       1.00
      H100          H  0.3973161  0.9480821  0.5079286    0.00000       Uiso       1.00
      C179          C  0.5399353  0.9091459  0.6031338    0.00000       Uiso       1.00
      C180          C  0.5197242  0.8910812  0.5839776    0.00000       Uiso       1.00
      C181          C  0.5061905  0.8853333  0.5515078    0.00000       Uiso       1.00
      C182          C  0.5464261  0.9209938  0.5886953    0.00000       Uiso       1.00
      C183          C  0.5334187  0.9146382  0.5559892    0.00000       Uiso       1.00
      C184          C  0.5125831  0.8969803  0.5366546    0.00000       Uiso       1.00
      H101          H  0.4538043  0.9269196  0.5312166    0.00000       Uiso       1.00
      H102          H  0.4845518  0.9480346  0.5088015    0.00000       Uiso       1.00
      H103          H  0.5618005  0.9350828  0.6026855    0.00000       Uiso       1.00
      H104          H  0.5149913  0.8804081  0.5937836    0.00000       Uiso       1.00
      C185          C  0.5403218  0.7831364  0.4771241    0.00000       Uiso       1.00
      C186          C  0.5594416  0.8022925  0.4951842    0.00000       Uiso       1.00
      C187          C  0.5462529  0.8347626  0.5009335    0.00000       Uiso       1.00
      C188          C  0.5075435  0.7975760  0.4652815    0.00000       Uiso       1.00
      C189          C  0.4942008  0.8302817  0.4716359    0.00000       Uiso       1.00
      C190          C  0.5133598  0.8496159  0.4892897    0.00000       Uiso       1.00
      H105          H  0.5367638  0.8550533  0.4593504    0.00000       Uiso       1.00
      H106          H  0.4624854  0.8774670  0.4382356    0.00000       Uiso       1.00
      H107          H  0.4920677  0.7835885  0.4511971    0.00000       Uiso       1.00
      H108          H  0.5846550  0.7924864  0.5058514    0.00000       Uiso       1.00
      C191          C  0.5228762  0.9265919  0.4600644    0.00000       Uiso       1.00
      C192          C  0.5347198  0.8938139  0.4535694    0.00000       Uiso       1.00
      C193          C  0.5283648  0.8804710  0.4665773    0.00000       Uiso       1.00
      C194          C  0.5048149  0.9457116  0.4802789    0.00000       Uiso       1.00
      C195          C  0.4990658  0.9325230  0.4938112    0.00000       Uiso       1.00
      C196          C  0.5107105  0.8996302  0.4874162    0.00000       Uiso       1.00
      H109          H  0.5617641  0.8487557  0.5154450    0.00000       Uiso       1.00
      H110          H  0.5406409  0.9230408  0.5461963    0.00000       Uiso       1.00
      H111          H  0.4941452  0.9709243  0.4850160    0.00000       Uiso       1.00
      H112          H  0.5488042  0.8783388  0.4381907    0.00000       Uiso       1.00
      C197          C  0.9694659  0.5370811  0.4168049    0.00000       Uiso       1.00
      C198          C  0.9856449  0.5347632  0.4470539    0.00000       Uiso       1.00
      C199          C  0.9718302  0.5300964  0.4609072    0.00000       Uiso       1.00
      C200          C  0.9392169  0.5347633  0.4006260    0.00000       Uiso       1.00
      C201          C  0.9253637  0.5300964  0.4144406    0.00000       Uiso       1.00
      C202          C  0.9408035  0.5287961  0.4454674    0.00000       Uiso       1.00
      H113          H  0.9130622  0.5996448  0.6428311    0.00000       Uiso       1.00
      H114          H  0.7434394  0.5996450  0.4732084    0.00000       Uiso       1.00
      H115          H  0.0103044  0.5366800  0.4606185    0.00000       Uiso       1.00
      C203          C  0.9233515  0.5831949  0.7034722    0.00000       Uiso       1.00
      C204          C  0.9210336  0.5993738  0.6870843    0.00000       Uiso       1.00
      C205          C  0.9163669  0.5855592  0.6547496    0.00000       Uiso       1.00
      C206          C  0.9210337  0.5529459  0.6870843    0.00000       Uiso       1.00
      C207          C  0.9163669  0.5390927  0.6547496    0.00000       Uiso       1.00
      C208          C  0.9150667  0.5545325  0.6378625    0.00000       Uiso       1.00
      H116          H  0.9859158  0.5267916  0.4836065    0.00000       Uiso       1.00
      H117          H  0.9859158  0.3571689  0.4836065    0.00000       Uiso       1.00
      H118          H  0.9229506  0.5393813  0.7000955    0.00000       Uiso       1.00
      C209          C  0.6827983  0.5831951  0.4629190    0.00000       Uiso       1.00
      C210          C  0.6991863  0.5529462  0.4652369    0.00000       Uiso       1.00
      C211          C  0.7315211  0.5390929  0.4699038    0.00000       Uiso       1.00
      C212          C  0.6991862  0.5993741  0.4652369    0.00000       Uiso       1.00
      C213          C  0.7315210  0.5855595  0.4699038    0.00000       Uiso       1.00
      C214          C  0.7484081  0.5545328  0.4712040    0.00000       Uiso       1.00
      H119          H  0.9026644  0.3571690  0.4003551    0.00000       Uiso       1.00
      H120          H  0.9026643  0.5267918  0.4003551    0.00000       Uiso       1.00
      H121          H  0.6861749  0.6240332  0.4633200    0.00000       Uiso       1.00
      C215          C  0.9694661  0.2965279  0.4168049    0.00000       Uiso       1.00
      C216          C  0.9392170  0.3129158  0.4006260    0.00000       Uiso       1.00
      C217          C  0.9253637  0.3452505  0.4144406    0.00000       Uiso       1.00
      C218          C  0.9856449  0.3129158  0.4470539    0.00000       Uiso       1.00
      C219          C  0.9718303  0.3452505  0.4609072    0.00000       Uiso       1.00
      C220          C  0.9408036  0.3621376  0.4454674    0.00000       Uiso       1.00
      H122          H  0.7434395  0.5163936  0.4732084    0.00000       Uiso       1.00
      H123          H  0.9130622  0.5163934  0.6428311    0.00000       Uiso       1.00
      C221          C  0.8862706  0.4999998  0.5000005    0.00000       Uiso       1.00
      H124          H  0.9256524  0.2999046  0.3759670    0.00000       Uiso       1.00
      Cl17         Cl  0.9182751  0.5377227  0.3625559    0.00000       Uiso       1.00
      Cl18         Cl  0.0237157  0.2928281  0.4679958    0.00000       Uiso       1.00
      Cl19         Cl  0.9239930  0.6374439  0.7071719    0.00000       Uiso       1.00
      Cl20         Cl  0.6790987  0.5320043  0.4622776    0.00000       Uiso       1.00
      C222          C  0.9262043  0.5228770  0.4596775    0.00000       Uiso       1.00
      C223          C  0.9327005  0.5347193  0.4924556    0.00000       Uiso       1.00
      C224          C  0.9196926  0.5283651  0.5057994    0.00000       Uiso       1.00
      C225          C  0.9059864  0.5048187  0.4405575    0.00000       Uiso       1.00
      C226          C  0.8924569  0.4990680  0.4537472    0.00000       Uiso       1.00
      C227          C  0.8988537  0.5107110  0.4866404    0.00000       Uiso       1.00
      H125          H  0.8708195  0.5617650  0.5375156    0.00000       Uiso       1.00
      H126          H  0.8400742  0.5406481  0.4632357    0.00000       Uiso       1.00
      H127          H  0.9012452  0.4941493  0.4153439    0.00000       Uiso       1.00
      H128          H  0.9480827  0.5488001  0.5079291    0.00000       Uiso       1.00
      C228          C  0.9091465  0.5403219  0.6031342    0.00000       Uiso       1.00
      C229          C  0.8910818  0.5594415  0.5839779    0.00000       Uiso       1.00
      C230          C  0.8853339  0.5462534  0.5515081    0.00000       Uiso       1.00
      C231          C  0.9209944  0.5075448  0.5886957    0.00000       Uiso       1.00
      C232          C  0.9146389  0.4942017  0.5559896    0.00000       Uiso       1.00
      C233          C  0.8969809  0.5133606  0.5366549    0.00000       Uiso       1.00
      H129          H  0.9269202  0.5367622  0.5312170    0.00000       Uiso       1.00
      H130          H  0.9480351  0.4624847  0.5088019    0.00000       Uiso       1.00
      H131          H  0.9350834  0.4920714  0.6026857    0.00000       Uiso       1.00
      H132          H  0.8804088  0.5846535  0.5937840    0.00000       Uiso       1.00
      C234          C  0.7831368  0.5399356  0.4771243    0.00000       Uiso       1.00
      C235          C  0.8022929  0.5197196  0.4951844    0.00000       Uiso       1.00
      C236          C  0.8347631  0.5061876  0.5009338    0.00000       Uiso       1.00
      C237          C  0.7975764  0.5464317  0.4652817    0.00000       Uiso       1.00
      C238          C  0.8302820  0.5334231  0.4716362    0.00000       Uiso       1.00
      C239          C  0.8496163  0.5125835  0.4892900    0.00000       Uiso       1.00
      H133          H  0.8550537  0.4538029  0.4593507    0.00000       Uiso       1.00
      H134          H  0.8774674  0.4845530  0.4382360    0.00000       Uiso       1.00
      H135          H  0.7835888  0.5618106  0.4511974    0.00000       Uiso       1.00
      H136          H  0.7924868  0.5149797  0.5058516    0.00000       Uiso       1.00
      C240          C  0.9265923  0.3968661  0.4600648    0.00000       Uiso       1.00
      C241          C  0.8938143  0.4113054  0.4535697    0.00000       Uiso       1.00
      C242          C  0.8804714  0.4440112  0.4665776    0.00000       Uiso       1.00
      C243          C  0.9457120  0.4160222  0.4802793    0.00000       Uiso       1.00
      C244          C  0.9325234  0.4484920  0.4938115    0.00000       Uiso       1.00
      C245          C  0.8996307  0.4633451  0.4874166    0.00000       Uiso       1.00
      H137          H  0.8487561  0.4911948  0.5154452    0.00000       Uiso       1.00
      H138          H  0.9230413  0.4687841  0.5461966    0.00000       Uiso       1.00
      H139          H  0.9709247  0.4062163  0.4850165    0.00000       Uiso       1.00
      H140          H  0.8783391  0.3973176  0.4381910    0.00000       Uiso       1.00
      C246          C  0.9694657  0.9694651  0.8491893    0.00000       Uiso       1.00
      C247          C  0.9392168  0.9856440  0.8515072    0.00000       Uiso       1.00
      C248          C  0.9253634  0.9718294  0.8561740    0.00000       Uiso       1.00
      C249          C  0.9856447  0.9392161  0.8515072    0.00000       Uiso       1.00
      C250          C  0.9718301  0.9253628  0.8561740    0.00000       Uiso       1.00
      C251          C  0.9408033  0.9408026  0.8574742    0.00000       Uiso       1.00
      H141          H  0.7434394  0.9130613  0.7866250    0.00000       Uiso       1.00
      H142          H  0.9130621  0.7434387  0.7866251    0.00000       Uiso       1.00
      H143          H  0.9256527  0.0103025  0.8495904    0.00000       Uiso       1.00
      C252          C  0.6827982  0.9233506  0.8030748    0.00000       Uiso       1.00
      C253          C  0.6991861  0.9210327  0.7868958    0.00000       Uiso       1.00
      C254          C  0.7315209  0.9163660  0.8007105    0.00000       Uiso       1.00
      C255          C  0.6991861  0.9210326  0.8333237    0.00000       Uiso       1.00
      C256          C  0.7315208  0.9163659  0.8471770    0.00000       Uiso       1.00
      C257          C  0.7484079  0.9150657  0.8317372    0.00000       Uiso       1.00
      H144          H  0.9026642  0.9859149  0.8594787    0.00000       Uiso       1.00
      H145          H  0.9026631  0.9859158  0.0291010    0.00000       Uiso       1.00
      H146          H  0.6861748  0.9229495  0.8468883    0.00000       Uiso       1.00
      C258          C  0.9233515  0.6827976  0.8030750    0.00000       Uiso       1.00
      C259          C  0.9210336  0.6991854  0.8333239    0.00000       Uiso       1.00
      C260          C  0.9163668  0.7315201  0.8471772    0.00000       Uiso       1.00
      C261          C  0.9210336  0.6991855  0.7868960    0.00000       Uiso       1.00
      C262          C  0.9163668  0.7315202  0.8007106    0.00000       Uiso       1.00
      C263          C  0.9150667  0.7484072  0.8317374    0.00000       Uiso       1.00
      H147          H  0.9859146  0.9026645  0.0291011    0.00000       Uiso       1.00
      H148          H  0.9859156  0.9026635  0.8594787    0.00000       Uiso       1.00
      H149          H  0.9229504  0.6861743  0.7622371    0.00000       Uiso       1.00
      C264          C  0.9694648  0.9694660  0.0897421    0.00000       Uiso       1.00
      C265          C  0.9856437  0.9392170  0.0733542    0.00000       Uiso       1.00
      C266          C  0.9718291  0.9253638  0.0410195    0.00000       Uiso       1.00
      C267          C  0.9392158  0.9856449  0.0733542    0.00000       Uiso       1.00
      C268          C  0.9253625  0.9718304  0.0410195    0.00000       Uiso       1.00
      C269          C  0.9408023  0.9408037  0.0241324    0.00000       Uiso       1.00
      H150          H  0.9130622  0.7434385  0.8698765    0.00000       Uiso       1.00
      H151          H  0.7434393  0.9130611  0.8698763    0.00000       Uiso       1.00
      C270          C  0.8862702  0.8862696  0.8862703    0.00000       Uiso       1.00
      H152          H  0.0103033  0.9256524  0.0863655    0.00000       Uiso       1.00
      Cl21         Cl  0.0237154  0.9182743  0.8485479    0.00000       Uiso       1.00
      Cl22         Cl  0.9182745  0.0237144  0.0934418    0.00000       Uiso       1.00
      Cl23         Cl  0.6790985  0.9239922  0.7488257    0.00000       Uiso       1.00
      Cl24         Cl  0.9239930  0.6790978  0.8542657    0.00000       Uiso       1.00
      C271          C  0.9265931  0.9262034  0.8633932    0.00000       Uiso       1.00
      C272          C  0.8938150  0.9326996  0.8515509    0.00000       Uiso       1.00
      C273          C  0.8804712  0.9196917  0.8579050    0.00000       Uiso       1.00
      C274          C  0.9457132  0.9059855  0.8814516    0.00000       Uiso       1.00
      C275          C  0.9325234  0.8924559  0.8872022    0.00000       Uiso       1.00
      C276          C  0.8996302  0.8988527  0.8755591    0.00000       Uiso       1.00
      H153          H  0.8487549  0.8708187  0.8245050    0.00000       Uiso       1.00
      H154          H  0.9230349  0.8400734  0.8456221    0.00000       Uiso       1.00
      H155          H  0.9709268  0.9012444  0.8921210    0.00000       Uiso       1.00
      H156          H  0.8783415  0.9480818  0.8374701    0.00000       Uiso       1.00
      C277          C  0.7831364  0.9091455  0.8459479    0.00000       Uiso       1.00
      C278          C  0.8022925  0.8910809  0.8268284    0.00000       Uiso       1.00
      C279          C  0.8347625  0.8853329  0.8400166    0.00000       Uiso       1.00
      C280          C  0.7975748  0.9209933  0.8787251    0.00000       Uiso       1.00
      C281          C  0.8302810  0.9146378  0.8920681    0.00000       Uiso       1.00
      C282          C  0.8496156  0.8969799  0.8729095    0.00000       Uiso       1.00
      H157          H  0.8550535  0.9269193  0.8495079    0.00000       Uiso       1.00
      H158          H  0.8774686  0.9480340  0.9237853    0.00000       Uiso       1.00
      H159          H  0.7835847  0.9350823  0.8941984    0.00000       Uiso       1.00
      H160          H  0.7924865  0.8804079  0.8016164    0.00000       Uiso       1.00
      C283          C  0.9091462  0.7831359  0.8463346    0.00000       Uiso       1.00
      C284          C  0.8910862  0.8022920  0.8665505    0.00000       Uiso       1.00
      C285          C  0.8853368  0.8347620  0.8800825    0.00000       Uiso       1.00
      C286          C  0.9209889  0.7975755  0.8398386    0.00000       Uiso       1.00
      C287          C  0.9146344  0.8302811  0.8528470    0.00000       Uiso       1.00
      C288          C  0.8969806  0.8496154  0.8736866    0.00000       Uiso       1.00
      H161          H  0.9269199  0.8550526  0.9324672    0.00000       Uiso       1.00
      H162          H  0.9480346  0.8774665  0.9017173    0.00000       Uiso       1.00
      H163          H  0.9350732  0.7835880  0.8244596    0.00000       Uiso       1.00
      H164          H  0.8804189  0.7924858  0.8712904    0.00000       Uiso       1.00
      C289          C  0.9262059  0.9265910  0.9894040    0.00000       Uiso       1.00
      C290          C  0.9327009  0.8938131  0.9749647    0.00000       Uiso       1.00
      C291          C  0.9196931  0.8804703  0.9422590    0.00000       Uiso       1.00
      C292          C  0.9059913  0.9457107  0.9702479    0.00000       Uiso       1.00
      C293          C  0.8924591  0.9325224  0.9377781    0.00000       Uiso       1.00
      C294          C  0.8988540  0.8996295  0.9229250    0.00000       Uiso       1.00
      H165          H  0.8708254  0.8487551  0.8950753    0.00000       Uiso       1.00
      H166          H  0.8400739  0.9230403  0.9174858    0.00000       Uiso       1.00
      H167          H  0.9012542  0.9709235  0.9800538    0.00000       Uiso       1.00
      H168          H  0.9480797  0.8783379  0.9889526    0.00000       Uiso       1.00
        N1          N  0.5861261  0.6313477  0.7549216    0.00000       Uiso       1.00
      C295          C  0.6007901  0.6472530  0.7854795    0.00000       Uiso       1.00
      C296          C  0.6472538  0.6007898  0.7854798    0.00000       Uiso       1.00
        N2          N  0.6313481  0.6313477  0.8001436    0.00000       Uiso       1.00
        N3          N  0.6313482  0.5861259  0.7549219    0.00000       Uiso       1.00
      C297          C  0.6007902  0.6007898  0.7390162    0.00000       Uiso       1.00
        N4          N  0.6313487  0.5861259  0.4625531    0.00000       Uiso       1.00
      C298          C  0.6472541  0.6007898  0.4625646    0.00000       Uiso       1.00
      C299          C  0.6007907  0.6472535  0.4625646    0.00000       Uiso       1.00
        N5          N  0.6313487  0.6313478  0.4625531    0.00000       Uiso       1.00
        N6          N  0.5861269  0.6313478  0.4625531    0.00000       Uiso       1.00
      C300          C  0.6007908  0.6007898  0.4625646    0.00000       Uiso       1.00
      C301          C  0.5428543  0.2137031  0.3652624    0.00000       Uiso       1.00
      C302          C  0.5444731  0.1866437  0.3384004    0.00000       Uiso       1.00
      C303          C  0.5476193  0.1857836  0.3126184    0.00000       Uiso       1.00
      C304          C  0.5476052  0.1590397  0.2852990    0.00000       Uiso       1.00
      C305          C  0.5426514  0.1331721  0.2824334    0.00000       Uiso       1.00
      C306          C  0.5390505  0.1347456  0.3085359    0.00000       Uiso       1.00
      C307          C  0.5421473  0.1600295  0.3373472    0.00000       Uiso       1.00
        O1          O  0.5435328  0.2420774  0.3695728    0.00000       Uiso       1.00
      H169          H  0.5501199  0.2059813  0.3137671    0.00000       Uiso       1.00
      H170          H  0.5511629  0.1591552  0.2664965    0.00000       Uiso       1.00
      H171          H  0.5317947  0.1171649  0.3058271    0.00000       Uiso       1.00
      C308          C  0.5429376  0.0209711  0.3913000    0.00000       Uiso       1.00
      C309          C  0.5445752  0.0478262  0.3927250    0.00000       Uiso       1.00
      C310          C  0.5477057  0.0736182  0.4207865    0.00000       Uiso       1.00
      C311          C  0.5476823  0.1009386  0.4213398    0.00000       Uiso       1.00
      C312          C  0.5427267  0.1037999  0.3933812    0.00000       Uiso       1.00
      C313          C  0.5391569  0.0776788  0.3652617    0.00000       Uiso       1.00
      C314          C  0.5422669  0.0488669  0.3648417    0.00000       Uiso       1.00
        O2          O  0.5435734  0.0166832  0.4160344    0.00000       Uiso       1.00
      H172          H  0.5501856  0.0724864  0.4423347    0.00000       Uiso       1.00
      H173          H  0.5512244  0.1197478  0.4438117    0.00000       Uiso       1.00
      H174          H  0.5319034  0.0803694  0.3431282    0.00000       Uiso       1.00
      C315          C  0.5429084  0.9949850  0.1725925    0.00000       Uiso       1.00
      C316          C  0.5445703  0.9935535  0.1996648    0.00000       Uiso       1.00
      C317          C  0.5477448  0.9654772  0.2005304    0.00000       Uiso       1.00
      C318          C  0.5477608  0.9649035  0.2272848    0.00000       Uiso       1.00
      C319          C  0.5428097  0.9928570  0.2531563    0.00000       Uiso       1.00
      C320          C  0.5391979  0.0209936  0.2515821    0.00000       Uiso       1.00
      C321          C  0.5422544  0.0214362  0.2262806    0.00000       Uiso       1.00
        O3          O  0.5435814  0.9702410  0.1442202    0.00000       Uiso       1.00
      H175          H  0.5502284  0.9439363  0.1803189    0.00000       Uiso       1.00
      H176          H  0.5513260  0.9424241  0.2271685    0.00000       Uiso       1.00
      H177          H  0.5319533  0.0431194  0.2691698    0.00000       Uiso       1.00
      C322          C  0.5388156  0.0226247  0.1713065    0.00000       Uiso       1.00
      C323          C  0.5380657  0.0502839  0.1976222    0.00000       Uiso       1.00
      C324          C  0.5346385  0.0783039  0.1964271    0.00000       Uiso       1.00
      C325          C  0.5351440  0.1054173  0.2233741    0.00000       Uiso       1.00
      C326          C  0.5409145  0.1046245  0.2526660    0.00000       Uiso       1.00
      C327          C  0.5450212  0.0759178  0.2534844    0.00000       Uiso       1.00
      C328          C  0.5413478  0.0494037  0.2260043    0.00000       Uiso       1.00
        O4          O  0.5364821  0.0193129  0.1419946    0.00000       Uiso       1.00
      H178          H  0.5314422  0.0791206  0.1744313    0.00000       Uiso       1.00
      H179          H  0.5312313  0.1267409  0.2209083    0.00000       Uiso       1.00
      H180          H  0.5529495  0.0735089  0.2759223    0.00000       Uiso       1.00
      C329          C  0.5388978  0.9961143  0.3636703    0.00000       Uiso       1.00
      C330          C  0.5381771  0.9955119  0.3360206    0.00000       Uiso       1.00
      C331          C  0.5348180  0.9696968  0.3080147    0.00000       Uiso       1.00
      C332          C  0.5353445  0.9690239  0.2809125    0.00000       Uiso       1.00
      C333          C  0.5410621  0.9933699  0.2816976    0.00000       Uiso       1.00
      C334          C  0.5451060  0.0188118  0.3103926    0.00000       Uiso       1.00
      C335          C  0.5414167  0.0215117  0.3368933    0.00000       Uiso       1.00
        O5          O  0.5365739  0.9724433  0.3669830    0.00000       Uiso       1.00
      H181          H  0.5316441  0.9500644  0.3071958    0.00000       Uiso       1.00
      H182          H  0.5314792  0.9491225  0.2596010    0.00000       Uiso       1.00
      H183          H  0.5530111  0.0357558  0.3128168    0.00000       Uiso       1.00
      C336          C  0.5388120  0.2149662  0.3901173    0.00000       Uiso       1.00
      C337          C  0.5380704  0.1886452  0.3907062    0.00000       Uiso       1.00
      C338          C  0.5347204  0.1898147  0.4165254    0.00000       Uiso       1.00
      C339          C  0.5352515  0.1628604  0.4172049    0.00000       Uiso       1.00
      C340          C  0.5409526  0.1335813  0.3928504    0.00000       Uiso       1.00
      C341          C  0.5449735  0.1327925  0.3673929    0.00000       Uiso       1.00
      C342          C  0.5412917  0.1602834  0.3646977    0.00000       Uiso       1.00
        O6          O  0.5365226  0.2442608  0.4138077    0.00000       Uiso       1.00
      H184          H  0.5315590  0.2118038  0.4361599    0.00000       Uiso       1.00
      H185          H  0.5314065  0.1653180  0.4371199    0.00000       Uiso       1.00
      H186          H  0.5528628  0.1103662  0.3504372    0.00000       Uiso       1.00
        B1          B  0.5395043  0.2612992  0.4004877    0.00000       Uiso       1.00
        B2          B  0.5395278  0.9857773  0.4003162    0.00000       Uiso       1.00
        B3          B  0.5394982  0.9859652  0.1249728    0.00000       Uiso       1.00
      C343          C  0.2137034  0.5428537  0.3912951    0.00000       Uiso       1.00
      C344          C  0.1866440  0.5444723  0.3927165    0.00000       Uiso       1.00
      C345          C  0.1857837  0.5476184  0.4207844    0.00000       Uiso       1.00
      C346          C  0.1590398  0.5476043  0.4213458    0.00000       Uiso       1.00
      C347          C  0.1331722  0.5426506  0.3933900    0.00000       Uiso       1.00
      C348          C  0.1347458  0.5390497  0.3652601    0.00000       Uiso       1.00
      C349          C  0.1600297  0.5421466  0.3648297    0.00000       Uiso       1.00
        O7          O  0.2420777  0.5435321  0.4160375    0.00000       Uiso       1.00
      H187          H  0.2059814  0.5501191  0.4423340    0.00000       Uiso       1.00
      H188          H  0.1591553  0.5511621  0.4438215    0.00000       Uiso       1.00
      H189          H  0.1171651  0.5317940  0.3431325    0.00000       Uiso       1.00
      C350          C  0.0209714  0.5429371  0.1726088    0.00000       Uiso       1.00
      C351          C  0.0478266  0.5445747  0.1996766    0.00000       Uiso       1.00
      C352          C  0.0736186  0.5477052  0.2005376    0.00000       Uiso       1.00
      C353          C  0.1009390  0.5476817  0.2272813    0.00000       Uiso       1.00
      C354          C  0.1038003  0.5427261  0.2531455    0.00000       Uiso       1.00
      C355          C  0.0776791  0.5391563  0.2515740    0.00000       Uiso       1.00
      C356          C  0.0488671  0.5422664  0.2262922    0.00000       Uiso       1.00
        O8          O  0.0166836  0.5435730  0.1442224    0.00000       Uiso       1.00
      H190          H  0.0724868  0.5501852  0.1803376    0.00000       Uiso       1.00
      H191          H  0.1197482  0.5512239  0.2271607    0.00000       Uiso       1.00
      H192          H  0.0803696  0.5319028  0.2691447    0.00000       Uiso       1.00
      C357          C  0.9949839  0.5429080  0.3653006    0.00000       Uiso       1.00
      C358          C  0.9935523  0.5445701  0.3384587    0.00000       Uiso       1.00
      C359          C  0.9654759  0.5477445  0.3126912    0.00000       Uiso       1.00
      C360          C  0.9649024  0.5477606  0.2853793    0.00000       Uiso       1.00
      C361          C  0.9928560  0.5428094  0.2825101    0.00000       Uiso       1.00
      C362          C  0.0209936  0.5391971  0.3086092    0.00000       Uiso       1.00
      C363          C  0.0214362  0.5422536  0.3374098    0.00000       Uiso       1.00
        O9          O  0.9702397  0.5435809  0.3696018    0.00000       Uiso       1.00
      H193          H  0.9439351  0.5502280  0.3138454    0.00000       Uiso       1.00
      H194          H  0.9424229  0.5513259  0.2665812    0.00000       Uiso       1.00
      H195          H  0.0431195  0.5319526  0.3059028    0.00000       Uiso       1.00
      C364          C  0.0226246  0.5388147  0.3901334    0.00000       Uiso       1.00
      C365          C  0.0502839  0.5380647  0.3907271    0.00000       Uiso       1.00
      C366          C  0.0783039  0.5346375  0.4165151    0.00000       Uiso       1.00
      C367          C  0.1054173  0.5351431  0.4171870    0.00000       Uiso       1.00
      C368          C  0.1046245  0.5409136  0.3928728    0.00000       Uiso       1.00
      C369          C  0.0759179  0.5450204  0.3674545    0.00000       Uiso       1.00
      C370          C  0.0494037  0.5413469  0.3647470    0.00000       Uiso       1.00
       O10          O  0.0193127  0.5364811  0.4137999    0.00000       Uiso       1.00
      H196          H  0.0791205  0.5314413  0.4361311    0.00000       Uiso       1.00
      H197          H  0.1267409  0.5312304  0.4370638    0.00000       Uiso       1.00
      H198          H  0.0735090  0.5529487  0.3505360    0.00000       Uiso       1.00
      C371          C  0.9961134  0.5388978  0.1713418    0.00000       Uiso       1.00
      C372          C  0.9955111  0.5381771  0.1976685    0.00000       Uiso       1.00
      C373          C  0.9696958  0.5348179  0.1964999    0.00000       Uiso       1.00
      C374          C  0.9690229  0.5353444  0.2234558    0.00000       Uiso       1.00
      C375          C  0.9933689  0.5410619  0.2527342    0.00000       Uiso       1.00
      C376          C  0.0188120  0.5451053  0.2535252    0.00000       Uiso       1.00
      C377          C  0.0215120  0.5414160  0.2260352    0.00000       Uiso       1.00
       O11          O  0.9724424  0.5365739  0.1420342    0.00000       Uiso       1.00
      H199          H  0.9500635  0.5316441  0.1745126    0.00000       Uiso       1.00
      H200          H  0.9491215  0.5314790  0.2210005    0.00000       Uiso       1.00
      H201          H  0.0357560  0.5530104  0.2759501    0.00000       Uiso       1.00
      C378          C  0.2149666  0.5388113  0.3636611    0.00000       Uiso       1.00
      C379          C  0.1886455  0.5380698  0.3360097    0.00000       Uiso       1.00
      C380          C  0.1898151  0.5347198  0.3080099    0.00000       Uiso       1.00
      C381          C  0.1628608  0.5352510  0.2809071    0.00000       Uiso       1.00
      C382          C  0.1335816  0.5409520  0.2816837    0.00000       Uiso       1.00
      C383          C  0.1327928  0.5449728  0.3103732    0.00000       Uiso       1.00
      C384          C  0.1602837  0.5412910  0.3368774    0.00000       Uiso       1.00
       O12          O  0.2442611  0.5365220  0.3669758    0.00000       Uiso       1.00
      H202          H  0.2118043  0.5315585  0.3072032    0.00000       Uiso       1.00
      H203          H  0.1653184  0.5314060  0.2596048    0.00000       Uiso       1.00
      H204          H  0.1103665  0.5528621  0.3127919    0.00000       Uiso       1.00
        B4          B  0.2612995  0.5395036  0.4003160    0.00000       Uiso       1.00
        B5          B  0.9857765  0.5395280  0.1249890    0.00000       Uiso       1.00
        B6          B  0.9859638  0.5394977  0.4004901    0.00000       Uiso       1.00
        N7          N  0.9237174  0.6313478  0.8001443    0.00000       Uiso       1.00
      C385          C  0.9237059  0.6472533  0.7854803    0.00000       Uiso       1.00
      C386          C  0.9237059  0.6007901  0.7390167    0.00000       Uiso       1.00
        N8          N  0.9237174  0.6313480  0.7549223    0.00000       Uiso       1.00
        N9          N  0.9237174  0.5861262  0.7549223    0.00000       Uiso       1.00
      C387          C  0.9237059  0.6007900  0.7854803    0.00000       Uiso       1.00
      C388          C  0.9949754  0.2137024  0.8434163    0.00000       Uiso       1.00
      C389          C  0.9935540  0.1866430  0.8417975    0.00000       Uiso       1.00
      C390          C  0.9654861  0.1857828  0.8386514    0.00000       Uiso       1.00
      C391          C  0.9649246  0.1590389  0.8386654    0.00000       Uiso       1.00
      C392          C  0.9928805  0.1331712  0.8436193    0.00000       Uiso       1.00
      C393          C  0.0210109  0.1347448  0.8472202    0.00000       Uiso       1.00
      C394          C  0.0214414  0.1600288  0.8441233    0.00000       Uiso       1.00
       O13          O  0.9702330  0.2420767  0.8427377    0.00000       Uiso       1.00
      H205          H  0.9439364  0.2059804  0.8361506    0.00000       Uiso       1.00
      H206          H  0.9424489  0.1591543  0.8351077    0.00000       Uiso       1.00
      H207          H  0.0431385  0.1171641  0.8544760    0.00000       Uiso       1.00
      C395          C  0.2136624  0.0209706  0.8433332    0.00000       Uiso       1.00
      C396          C  0.1865946  0.0478258  0.8416957    0.00000       Uiso       1.00
      C397          C  0.1857336  0.0736178  0.8385652    0.00000       Uiso       1.00
      C398          C  0.1589898  0.1009382  0.8385885    0.00000       Uiso       1.00
      C399          C  0.1331256  0.1037994  0.8435441    0.00000       Uiso       1.00
      C400          C  0.1346971  0.0776782  0.8471139    0.00000       Uiso       1.00
      C401          C  0.1599790  0.0488663  0.8440039    0.00000       Uiso       1.00
       O14          O  0.2420489  0.0166828  0.8426975    0.00000       Uiso       1.00
      H208          H  0.2059336  0.0724861  0.8360853    0.00000       Uiso       1.00
      H209          H  0.1591105  0.1197474  0.8350464    0.00000       Uiso       1.00
      H210          H  0.1171264  0.0803687  0.8543673    0.00000       Uiso       1.00
      C402          C  0.0209698  0.9949840  0.8433618    0.00000       Uiso       1.00
      C403          C  0.0478118  0.9935525  0.8416998    0.00000       Uiso       1.00
      C404          C  0.0735792  0.9654762  0.8385255    0.00000       Uiso       1.00
      C405          C  0.1008911  0.9649026  0.8385094    0.00000       Uiso       1.00
      C406          C  0.1037604  0.9928561  0.8434606    0.00000       Uiso       1.00
      C407          C  0.0776618  0.0209927  0.8470728    0.00000       Uiso       1.00
      C408          C  0.0488612  0.0214353  0.8440164    0.00000       Uiso       1.00
       O15          O  0.0166686  0.9702398  0.8426888    0.00000       Uiso       1.00
      H211          H  0.0724250  0.9439353  0.8360419    0.00000       Uiso       1.00
      H212          H  0.1196892  0.9424231  0.8349442    0.00000       Uiso       1.00
      H213          H  0.0803683  0.0431185  0.8543174    0.00000       Uiso       1.00
      C409          C  0.9961370  0.0226236  0.8474551    0.00000       Uiso       1.00
      C410          C  0.9955434  0.0502829  0.8482051    0.00000       Uiso       1.00
      C411          C  0.9697554  0.0783028  0.8516322    0.00000       Uiso       1.00
      C412          C  0.9690834  0.1054162  0.8511266    0.00000       Uiso       1.00
      C413          C  0.9933977  0.1046235  0.8453562    0.00000       Uiso       1.00
      C414          C  0.0188165  0.0759169  0.8412495    0.00000       Uiso       1.00
      C415          C  0.0215239  0.0494027  0.8449229    0.00000       Uiso       1.00
       O16          O  0.9724705  0.0193116  0.8497886    0.00000       Uiso       1.00
      H214          H  0.9501392  0.0791194  0.8548284    0.00000       Uiso       1.00
      H215          H  0.9492067  0.1267398  0.8550392    0.00000       Uiso       1.00
      H216          H  0.0357350  0.0735081  0.8333213    0.00000       Uiso       1.00
      C416          C  0.2149288  0.9961137  0.8473725    0.00000       Uiso       1.00
      C417          C  0.1886020  0.9955114  0.8480932    0.00000       Uiso       1.00
      C418          C  0.1897707  0.9696961  0.8514524    0.00000       Uiso       1.00
      C419          C  0.1628148  0.9690232  0.8509258    0.00000       Uiso       1.00
      C420          C  0.1335363  0.9933691  0.8452082    0.00000       Uiso       1.00
      C421          C  0.1327460  0.0188111  0.8411648    0.00000       Uiso       1.00
      C422          C  0.1602360  0.0215111  0.8448542    0.00000       Uiso       1.00
       O17          O  0.2442365  0.9724428  0.8496966    0.00000       Uiso       1.00
      H217          H  0.2117580  0.9500638  0.8546262    0.00000       Uiso       1.00
      H218          H  0.1652700  0.9491217  0.8547911    0.00000       Uiso       1.00
      H219          H  0.1103210  0.0357551  0.8332597    0.00000       Uiso       1.00
      C423          C  0.0226100  0.2149656  0.8474587    0.00000       Uiso       1.00
      C424          C  0.0502614  0.1886446  0.8482002    0.00000       Uiso       1.00
      C425          C  0.0782612  0.1898142  0.8515503    0.00000       Uiso       1.00
      C426          C  0.1053640  0.1628599  0.8510192    0.00000       Uiso       1.00
      C427          C  0.1045875  0.1335808  0.8453181    0.00000       Uiso       1.00
      C428          C  0.0758979  0.1327920  0.8412973    0.00000       Uiso       1.00
      C429          C  0.0493937  0.1602828  0.8449790    0.00000       Uiso       1.00
       O18          O  0.0192952  0.2442602  0.8497481    0.00000       Uiso       1.00
      H220          H  0.0790679  0.2118034  0.8547117    0.00000       Uiso       1.00
      H221          H  0.1266663  0.1653175  0.8548642    0.00000       Uiso       1.00
      H222          H  0.0734792  0.1103656  0.8334079    0.00000       Uiso       1.00
        B7          B  0.9859545  0.2612985  0.8467663    0.00000       Uiso       1.00
        B8          B  0.2612817  0.9857769  0.8467426    0.00000       Uiso       1.00
        B9          B  0.9857798  0.9859639  0.8467720    0.00000       Uiso       1.00
       N10          N  0.5861260  0.9237165  0.7549216    0.00000       Uiso       1.00
      C430          C  0.6007900  0.9237050  0.7390161    0.00000       Uiso       1.00
      C431          C  0.6472536  0.9237049  0.7854794    0.00000       Uiso       1.00
       N11          N  0.6313480  0.9237165  0.7549216    0.00000       Uiso       1.00
       N12          N  0.6313480  0.9237164  0.8001432    0.00000       Uiso       1.00
      C432          C  0.6007900  0.9237049  0.7854794    0.00000       Uiso       1.00
      C433          C  0.2137031  0.9949748  0.3652622    0.00000       Uiso       1.00
      C434          C  0.1866437  0.9935534  0.3384001    0.00000       Uiso       1.00
      C435          C  0.1857835  0.9654856  0.3126181    0.00000       Uiso       1.00
      C436          C  0.1590396  0.9649242  0.2852987    0.00000       Uiso       1.00
      C437          C  0.1331719  0.9928799  0.2824330    0.00000       Uiso       1.00
      C438          C  0.1347461  0.0210092  0.3085355    0.00000       Uiso       1.00
      C439          C  0.1600300  0.0214396  0.3373469    0.00000       Uiso       1.00
       O19          O  0.2420775  0.9702324  0.3695726    0.00000       Uiso       1.00
      H223          H  0.2059812  0.9439359  0.3137668    0.00000       Uiso       1.00
      H224          H  0.1591550  0.9424485  0.2664962    0.00000       Uiso       1.00
      H225          H  0.1171653  0.0431368  0.3058267    0.00000       Uiso       1.00
      C440          C  0.0209717  0.2136604  0.3912996    0.00000       Uiso       1.00
      C441          C  0.0478268  0.1865926  0.3927245    0.00000       Uiso       1.00
      C442          C  0.0736189  0.1857316  0.4207861    0.00000       Uiso       1.00
      C443          C  0.1009393  0.1589879  0.4213394    0.00000       Uiso       1.00
      C444          C  0.1038005  0.1331237  0.3933809    0.00000       Uiso       1.00
      C445          C  0.0776793  0.1346952  0.3652613    0.00000       Uiso       1.00
      C446          C  0.0488674  0.1599770  0.3648413    0.00000       Uiso       1.00
       O20          O  0.0166838  0.2420468  0.4160340    0.00000       Uiso       1.00
      H226          H  0.0724871  0.2059315  0.4423342    0.00000       Uiso       1.00
      H227          H  0.1197485  0.1591084  0.4438114    0.00000       Uiso       1.00
      H228          H  0.0803699  0.1171245  0.3431278    0.00000       Uiso       1.00
      C447          C  0.9949841  0.0209688  0.1725920    0.00000       Uiso       1.00
      C448          C  0.9935526  0.0478107  0.1996644    0.00000       Uiso       1.00
      C449          C  0.9654763  0.0735781  0.2005299    0.00000       Uiso       1.00
      C450          C  0.9649026  0.1008900  0.2272842    0.00000       Uiso       1.00
      C451          C  0.9928561  0.1037592  0.2531559    0.00000       Uiso       1.00
      C452          C  0.0209939  0.0776601  0.2515817    0.00000       Uiso       1.00
      C453          C  0.0214365  0.0488595  0.2262802    0.00000       Uiso       1.00
       O21          O  0.9702399  0.0166676  0.1442197    0.00000       Uiso       1.00
      H229          H  0.9439354  0.0724239  0.1803184    0.00000       Uiso       1.00
      H230          H  0.9424232  0.1196880  0.2271680    0.00000       Uiso       1.00
      H231          H  0.0431197  0.0803665  0.2691694    0.00000       Uiso       1.00
      C454          C  0.0226243  0.9961365  0.1713061    0.00000       Uiso       1.00
      C455          C  0.0502836  0.9955429  0.1976218    0.00000       Uiso       1.00
      C456          C  0.0783036  0.9697549  0.1964267    0.00000       Uiso       1.00
      C457          C  0.1054170  0.9690830  0.2233737    0.00000       Uiso       1.00
      C458          C  0.1046243  0.9933972  0.2526657    0.00000       Uiso       1.00
      C459          C  0.0759182  0.0188148  0.2534840    0.00000       Uiso       1.00
      C460          C  0.0494040  0.0215223  0.2260038    0.00000       Uiso       1.00
       O22          O  0.0193124  0.9724701  0.1419942    0.00000       Uiso       1.00
      H232          H  0.0791202  0.9501389  0.1744309    0.00000       Uiso       1.00
      H233          H  0.1267406  0.9492062  0.2209080    0.00000       Uiso       1.00
      H234          H  0.0735093  0.0357333  0.2759219    0.00000       Uiso       1.00
      C461          C  0.9961136  0.2149274  0.3636698    0.00000       Uiso       1.00
      C462          C  0.9955112  0.1886007  0.3360201    0.00000       Uiso       1.00
      C463          C  0.9696960  0.1897693  0.3080142    0.00000       Uiso       1.00
      C464          C  0.9690232  0.1628135  0.2809121    0.00000       Uiso       1.00
      C465          C  0.9933691  0.1335350  0.2816971    0.00000       Uiso       1.00
      C466          C  0.0188122  0.1327441  0.3103921    0.00000       Uiso       1.00
      C467          C  0.0215122  0.1602341  0.3368928    0.00000       Uiso       1.00
       O23          O  0.9724426  0.2442350  0.3669825    0.00000       Uiso       1.00
      H235          H  0.9500636  0.2117566  0.3071953    0.00000       Uiso       1.00
      H236          H  0.9491217  0.1652688  0.2596005    0.00000       Uiso       1.00
      H237          H  0.0357562  0.1103192  0.3128164    0.00000       Uiso       1.00
      C468          C  0.2149669  0.0226082  0.3901170    0.00000       Uiso       1.00
      C469          C  0.1886458  0.0502596  0.3907059    0.00000       Uiso       1.00
      C470          C  0.1898154  0.0782594  0.4165251    0.00000       Uiso       1.00
      C471          C  0.1628610  0.1053621  0.4172046    0.00000       Uiso       1.00
      C472          C  0.1335819  0.1045856  0.3928501    0.00000       Uiso       1.00
      C473          C  0.1327931  0.0758961  0.3673926    0.00000       Uiso       1.00
      C474          C  0.1602840  0.0493918  0.3646974    0.00000       Uiso       1.00
       O24          O  0.2442614  0.0192934  0.4138075    0.00000       Uiso       1.00
      H238          H  0.2118046  0.0790660  0.4361596    0.00000       Uiso       1.00
      H239          H  0.1653187  0.1266644  0.4371196    0.00000       Uiso       1.00
      H240          H  0.1103667  0.0734774  0.3504368    0.00000       Uiso       1.00
       B10          B  0.2612992  0.9859539  0.4004874    0.00000       Uiso       1.00
       B11          B  0.9857767  0.2612802  0.4003157    0.00000       Uiso       1.00
       B12          B  0.9859635  0.9857800  0.1249723    0.00000       Uiso       1.00
