data_47
_audit_creation_date              0000-00-00
_audit_creation_method            'LanYouShi'
_symmetry_space_group_name_H-M    'P1'
_cell_length_a                    59.4054985
_cell_length_b                    59.4054985
_cell_length_c                    59.4062004
_cell_angle_alpha                 120.0003967
_cell_angle_beta                  59.9995995
_cell_angle_gamma                 120.0008011
loop_
_atom_site_label
_atom_site_type_symbol
_atom_site_fract_x
_atom_site_fract_y
_atom_site_fract_z
_atom_site_U_iso_or_equiv
_atom_site_adp_type
_atom_site_occupancy
        C1          C  0.5323954  0.4273205  0.3222450    0.00000       Uiso       1.00
        C2          C  0.5303701  0.4131859  0.3365614    0.00000       Uiso       1.00
        C3          C  0.5262930  0.4252544  0.3648094    0.00000       Uiso       1.00
        C4          C  0.5303707  0.4537466  0.3365619    0.00000       Uiso       1.00
        C5          C  0.5262935  0.4658489  0.3648099    0.00000       Uiso       1.00
        C6          C  0.5251572  0.4523601  0.3795624    0.00000       Uiso       1.00
        H1          H  0.5870526  0.6247812  0.5143239    0.00000       Uiso       1.00
        H2          H  0.5320455  0.4655972  0.3251953    0.00000       Uiso       1.00
        H3          H  0.5320446  0.3916432  0.3251944    0.00000       Uiso       1.00
        C7          C  0.5726792  0.4676042  0.5726804    0.00000       Uiso       1.00
        C8          C  0.5868137  0.4696295  0.5462547    0.00000       Uiso       1.00
        C9          C  0.5747453  0.4737067  0.5341524    0.00000       Uiso       1.00
       C10          C  0.5462530  0.4696290  0.5868145    0.00000       Uiso       1.00
       C11          C  0.5341507  0.4737062  0.5747460    0.00000       Uiso       1.00
       C12          C  0.5476396  0.4748424  0.5476407    0.00000       Uiso       1.00
        H4          H  0.5234057  0.4129488  0.3752213    0.00000       Uiso       1.00
        H5          H  0.5344024  0.4679541  0.6083568    0.00000       Uiso       1.00
        H6          H  0.6083565  0.4679550  0.5344045    0.00000       Uiso       1.00
       C13          C  0.5726817  0.6777583  0.5726830    0.00000       Uiso       1.00
       C14          C  0.5462554  0.6634411  0.5868168    0.00000       Uiso       1.00
       C15          C  0.5341526  0.6351928  0.5747479    0.00000       Uiso       1.00
       C16          C  0.5868161  0.6634417  0.5462571    0.00000       Uiso       1.00
       C17          C  0.5747472  0.6351933  0.5341544    0.00000       Uiso       1.00
       C18          C  0.5476413  0.6204401  0.5476426    0.00000       Uiso       1.00
        H7          H  0.3752193  0.4856777  0.5234058    0.00000       Uiso       1.00
        H8          H  0.6083590  0.6748089  0.5344071    0.00000       Uiso       1.00
        H9          H  0.5344049  0.6748079  0.6083593    0.00000       Uiso       1.00
       C19          C  0.3222413  0.4273178  0.5323940    0.00000       Uiso       1.00
       C20          C  0.3365584  0.4537442  0.5303694    0.00000       Uiso       1.00
       C21          C  0.3648068  0.4658469  0.5262926    0.00000       Uiso       1.00
       C22          C  0.3365580  0.4131835  0.5303689    0.00000       Uiso       1.00
       C23          C  0.3648064  0.4252524  0.5262921    0.00000       Uiso       1.00
       C24          C  0.3795595  0.4523582  0.5251566    0.00000       Uiso       1.00
       H10          H  0.5143200  0.4765930  0.5870512    0.00000       Uiso       1.00
       C25          C  0.4999995  0.5000001  0.5000005    0.00000       Uiso       1.00
       H11          H  0.3251908  0.3916406  0.5320432    0.00000       Uiso       1.00
       H12          H  0.3251917  0.4655946  0.5320441    0.00000       Uiso       1.00
       C26          C  0.5221781  0.4941177  0.3796528    0.00000       Uiso       1.00
        O1          O  0.5185182  0.5055681  0.4045103    0.00000       Uiso       1.00
        O2          O  0.5225909  0.5064213  0.3652771    0.00000       Uiso       1.00
       H13          H  0.5197372  0.5237750  0.3774843    0.00000       Uiso       1.00
       C27          C  0.3796489  0.4077108  0.5221764    0.00000       Uiso       1.00
        O3          O  0.4045067  0.4174583  0.5185169    0.00000       Uiso       1.00
        O4          O  0.3652726  0.3814437  0.5225886    0.00000       Uiso       1.00
       H14          H  0.3774796  0.3734434  0.5197348    0.00000       Uiso       1.00
       C28          C  0.5922871  0.4778225  0.5058841    0.00000       Uiso       1.00
        O5          O  0.5825399  0.4814825  0.4944338    0.00000       Uiso       1.00
        O6          O  0.6185542  0.4774111  0.4935814    0.00000       Uiso       1.00
       H15          H  0.6265548  0.4802651  0.4762280    0.00000       Uiso       1.00
       C29          C  0.5058836  0.6203496  0.5922890    0.00000       Uiso       1.00
        O7          O  0.4944329  0.5954918  0.5825414    0.00000       Uiso       1.00
        O8          O  0.4935806  0.6347253  0.6185558    0.00000       Uiso       1.00
       H16          H  0.4762267  0.6225179  0.6265559    0.00000       Uiso       1.00
       C30          C  0.5199860  0.4651139  0.4099017    0.00000       Uiso       1.00
       C31          C  0.5303314  0.4594385  0.4225161    0.00000       Uiso       1.00
       C32          C  0.5247802  0.4708022  0.4510883    0.00000       Uiso       1.00
       C33          C  0.5042099  0.4827767  0.4266368    0.00000       Uiso       1.00
       C34          C  0.4991858  0.4945961  0.4550030    0.00000       Uiso       1.00
       C35          C  0.5093572  0.4890075  0.4679789    0.00000       Uiso       1.00
       H17          H  0.5539590  0.5134986  0.4923138    0.00000       Uiso       1.00
       H18          H  0.5355113  0.5403588  0.4727300    0.00000       Uiso       1.00
       H19          H  0.4948891  0.4869187  0.4180729    0.00000       Uiso       1.00
       C36          C  0.5352251  0.4800145  0.5348883    0.00000       Uiso       1.00
       C37          C  0.5519288  0.4957966  0.5172319    0.00000       Uiso       1.00
       C38          C  0.5404075  0.5008183  0.5054088    0.00000       Uiso       1.00
       C39          C  0.5065902  0.4696639  0.5405586    0.00000       Uiso       1.00
       C40          C  0.4949336  0.4752164  0.5291953    0.00000       Uiso       1.00
       C41          C  0.5116715  0.4906431  0.5109934    0.00000       Uiso       1.00
       H20          H  0.5321158  0.4644879  0.4596435    0.00000       Uiso       1.00
       H21          H  0.4672251  0.4460410  0.4865045    0.00000       Uiso       1.00
       H22          H  0.5739545  0.5051210  0.5130973    0.00000       Uiso       1.00
       C42          C  0.5348887  0.5901002  0.5352272    0.00000       Uiso       1.00
       C43          C  0.5172274  0.5733647  0.5519304    0.00000       Uiso       1.00
       C44          C  0.5054053  0.5449980  0.5404082    0.00000       Uiso       1.00
       C45          C  0.5405640  0.5774857  0.5065918    0.00000       Uiso       1.00
       C46          C  0.5291993  0.5489132  0.4949352    0.00000       Uiso       1.00
       C47          C  0.5109931  0.5320221  0.5116724    0.00000       Uiso       1.00
       H23          H  0.4596410  0.5272716  0.5321183    0.00000       Uiso       1.00
       H24          H  0.4865052  0.5076911  0.4672278    0.00000       Uiso       1.00
       H25          H  0.5130863  0.5819314  0.5739570    0.00000       Uiso       1.00
       C48          C  0.4098993  0.4647737  0.5199852    0.00000       Uiso       1.00
       C49          C  0.4225140  0.4934094  0.5303322    0.00000       Uiso       1.00
       C50          C  0.4510865  0.5050661  0.5247806    0.00000       Uiso       1.00
       C51          C  0.4266344  0.4480704  0.5042065    0.00000       Uiso       1.00
       C52          C  0.4550008  0.4595923  0.4991842    0.00000       Uiso       1.00
       C53          C  0.4679770  0.4883282  0.5093575    0.00000       Uiso       1.00
       H26          H  0.4923070  0.5327731  0.5539587    0.00000       Uiso       1.00
       H27          H  0.4727281  0.4678756  0.5355045    0.00000       Uiso       1.00
       H28          H  0.4180676  0.4260439  0.4948851    0.00000       Uiso       1.00
       C54          C  0.5596792  0.5948715  0.4873571    0.00000       Uiso       1.00
        O9          O  0.5645351  0.5836538  0.4623084    0.00000       Uiso       1.00
       O10          O  0.5711899  0.6226267  0.4980660    0.00000       Uiso       1.00
       H29          H  0.5824502  0.6303003  0.4834235    0.00000       Uiso       1.00
       C55          C  0.5478329  0.4403196  0.4051282    0.00000       Uiso       1.00
       O11          O  0.5568091  0.4354617  0.4163432    0.00000       Uiso       1.00
       O12          O  0.5533631  0.4288070  0.3773742    0.00000       Uiso       1.00
       H30          H  0.5644169  0.4175443  0.3696991    0.00000       Uiso       1.00
       C56          C  0.4051281  0.5126439  0.5478380    0.00000       Uiso       1.00
       O13          O  0.4163455  0.5376930  0.5568145    0.00000       Uiso       1.00
       O14          O  0.3773731  0.5019346  0.5533718    0.00000       Uiso       1.00
       H31          H  0.3696995  0.5165771  0.5644280    0.00000       Uiso       1.00
       C57          C  0.4873576  0.4521519  0.5596675    0.00000       Uiso       1.00
       O15          O  0.4623086  0.4431714  0.5645205    0.00000       Uiso       1.00
       O16          O  0.4980683  0.4466163  0.5711758    0.00000       Uiso       1.00
       H32          H  0.4834270  0.4355560  0.5824321    0.00000       Uiso       1.00
       C58          C  0.0365229  0.1415994  0.5324029    0.00000       Uiso       1.00
       C59          C  0.0506570  0.1272824  0.5303778    0.00000       Uiso       1.00
       C60          C  0.0385880  0.0990340  0.5263005    0.00000       Uiso       1.00
       C61          C  0.0100968  0.1272824  0.5303778    0.00000       Uiso       1.00
       C62          C  0.9979933  0.0990340  0.5263005    0.00000       Uiso       1.00
       C63          C  0.0114823  0.0842809  0.5251645    0.00000       Uiso       1.00
       H33          H  0.8390581  0.9495166  0.5870571    0.00000       Uiso       1.00
       H34          H  0.9982458  0.1386494  0.5320525    0.00000       Uiso       1.00
       H35          H  0.0721997  0.1386494  0.5320525    0.00000       Uiso       1.00
       C64          C  0.9962319  0.8911570  0.5726857    0.00000       Uiso       1.00
       C65          C  0.9942071  0.9175832  0.5868200    0.00000       Uiso       1.00
       C66          C  0.9901304  0.9296860  0.5747516    0.00000       Uiso       1.00
       C67          C  0.9942071  0.8770229  0.5462598    0.00000       Uiso       1.00
       C68          C  0.9901305  0.8890920  0.5341575    0.00000       Uiso       1.00
       C69          C  0.9889947  0.9161976  0.5476463    0.00000       Uiso       1.00
       H36          H  0.0508933  0.0886217  0.5234134    0.00000       Uiso       1.00
       H37          H  0.9958816  0.8554802  0.5344093    0.00000       Uiso       1.00
       H38          H  0.9958816  0.9294333  0.6083625    0.00000       Uiso       1.00
       C70          C  0.7860804  0.8911570  0.5726857    0.00000       Uiso       1.00
       C71          C  0.8003973  0.8770229  0.5462598    0.00000       Uiso       1.00
       C72          C  0.8286458  0.8890920  0.5341575    0.00000       Uiso       1.00
       C73          C  0.8003973  0.9175832  0.5868200    0.00000       Uiso       1.00
       C74          C  0.8286458  0.9296860  0.5747516    0.00000       Uiso       1.00
       C75          C  0.8433988  0.9161976  0.5476463    0.00000       Uiso       1.00
       H39          H  0.9781622  0.9404353  0.3752279    0.00000       Uiso       1.00
       H40          H  0.7890303  0.9294333  0.6083625    0.00000       Uiso       1.00
       H41          H  0.7890303  0.8554802  0.5344093    0.00000       Uiso       1.00
       C76          C  0.0365225  0.9314470  0.3222513    0.00000       Uiso       1.00
       C77          C  0.0100963  0.9334717  0.3365679    0.00000       Uiso       1.00
       C78          C  0.9979928  0.9375485  0.3648158    0.00000       Uiso       1.00
       C79          C  0.0506565  0.9334717  0.3365679    0.00000       Uiso       1.00
       C80          C  0.0385876  0.9375485  0.3648158    0.00000       Uiso       1.00
       C81          C  0.0114819  0.9386841  0.3795685    0.00000       Uiso       1.00
       H42          H  0.9872435  0.8767866  0.5143271    0.00000       Uiso       1.00
       C82          C  0.9638391  0.9638398  0.5000064    0.00000       Uiso       1.00
       H43          H  0.0721993  0.9317973  0.3252011    0.00000       Uiso       1.00
       H44          H  0.9982454  0.9317973  0.3252011    0.00000       Uiso       1.00
       C83          C  0.9697245  0.0841911  0.5221849    0.00000       Uiso       1.00
       O17          O  0.9582737  0.0593332  0.5185249    0.00000       Uiso       1.00
       O18          O  0.9574215  0.0985673  0.5225976    0.00000       Uiso       1.00
       H45          H  0.9400677  0.0863600  0.5197437    0.00000       Uiso       1.00
       C84          C  0.0561288  0.9416638  0.3796583    0.00000       Uiso       1.00
       O19          O  0.0463812  0.9453232  0.4045157    0.00000       Uiso       1.00
       O20          O  0.0823957  0.9412515  0.3652826    0.00000       Uiso       1.00
       H46          H  0.0903959  0.9441051  0.3774896    0.00000       Uiso       1.00
       C85          C  0.9860150  0.9579547  0.5922932    0.00000       Uiso       1.00
       O21          O  0.9823555  0.9694055  0.5825461    0.00000       Uiso       1.00
       O22          O  0.9864265  0.9702574  0.6185601    0.00000       Uiso       1.00
       H47          H  0.9835729  0.9876112  0.6265604    0.00000       Uiso       1.00
       C86          C  0.8434886  0.8715507  0.5058891    0.00000       Uiso       1.00
       O23          O  0.8683465  0.8812982  0.4944387    0.00000       Uiso       1.00
       O24          O  0.8291126  0.8452834  0.4935860    0.00000       Uiso       1.00
       H48          H  0.8413199  0.8372833  0.4762325    0.00000       Uiso       1.00
       C87          C  0.9987273  0.0539411  0.5199931    0.00000       Uiso       1.00
       C88          C  0.0044029  0.0413263  0.5303386    0.00000       Uiso       1.00
       C89          C  0.9930380  0.0127535  0.5247871    0.00000       Uiso       1.00
       C90          C  0.9810646  0.0372060  0.5042171    0.00000       Uiso       1.00
       C91          C  0.9692446  0.0088394  0.4991929    0.00000       Uiso       1.00
       C92          C  0.9748322  0.9958620  0.5093642    0.00000       Uiso       1.00
       H49          H  0.9503402  0.9715263  0.5539652    0.00000       Uiso       1.00
       H50          H  0.9234811  0.9911111  0.5355173    0.00000       Uiso       1.00
       H51          H  0.9769229  0.0457703  0.4948962    0.00000       Uiso       1.00
       C93          C  0.9838231  0.9289506  0.5352319    0.00000       Uiso       1.00
       C94          C  0.9680414  0.9466074  0.5519351    0.00000       Uiso       1.00
       C95          C  0.9630202  0.9584309  0.5404139    0.00000       Uiso       1.00
       C96          C  0.9941739  0.9232804  0.5065975    0.00000       Uiso       1.00
       C97          C  0.9886218  0.9346442  0.4949409    0.00000       Uiso       1.00
       C98          C  0.9731956  0.9528465  0.5116784    0.00000       Uiso       1.00
       H52          H  0.9993520  0.0041980  0.5321229    0.00000       Uiso       1.00
       H53          H  0.0177989  0.9773359  0.4672331    0.00000       Uiso       1.00
       H54          H  0.9587170  0.9507419  0.5739605    0.00000       Uiso       1.00
       C99          C  0.8737387  0.9286131  0.5348942    0.00000       Uiso       1.00
      C100          C  0.8904739  0.9119095  0.5172332    0.00000       Uiso       1.00
      C101          C  0.9188406  0.9234317  0.5054116    0.00000       Uiso       1.00
      C102          C  0.8863537  0.9572489  0.5405695    0.00000       Uiso       1.00
      C103          C  0.9149262  0.9689056  0.5292053    0.00000       Uiso       1.00
      C104          C  0.9318170  0.9521680  0.5109995    0.00000       Uiso       1.00
       H55          H  0.9365675  0.9317222  0.4596481    0.00000       Uiso       1.00
       H56          H  0.9561491  0.9966137  0.4865123    0.00000       Uiso       1.00
       H57          H  0.8819069  0.8898825  0.5130920    0.00000       Uiso       1.00
      C105          C  0.9990656  0.9438555  0.4099077    0.00000       Uiso       1.00
      C106          C  0.9704299  0.9335083  0.4225219    0.00000       Uiso       1.00
      C107          C  0.9587731  0.9390599  0.4510940    0.00000       Uiso       1.00
      C108          C  0.0157696  0.9596341  0.4266428    0.00000       Uiso       1.00
      C109          C  0.0042476  0.9646563  0.4550088    0.00000       Uiso       1.00
      C110          C  0.9755110  0.9544830  0.4679845    0.00000       Uiso       1.00
       H58          H  0.9310652  0.9098809  0.4923137    0.00000       Uiso       1.00
       H59          H  0.9959626  0.9283350  0.4727358    0.00000       Uiso       1.00
       H60          H  0.0377962  0.9689556  0.4180764    0.00000       Uiso       1.00
      C111          C  0.8689684  0.9764840  0.5596843    0.00000       Uiso       1.00
       O25          O  0.8801870  0.0015341  0.5645403    0.00000       Uiso       1.00
       O26          O  0.8412131  0.9657751  0.5711945    0.00000       Uiso       1.00
       H61          H  0.8335398  0.9804178  0.5824546    0.00000       Uiso       1.00
      C112          C  0.0235217  0.0587141  0.5478400    0.00000       Uiso       1.00
       O27          O  0.0283792  0.0474986  0.5568162    0.00000       Uiso       1.00
       O28          O  0.0350348  0.0864685  0.5533704    0.00000       Uiso       1.00
       H62          H  0.0462974  0.0941436  0.5644242    0.00000       Uiso       1.00
      C113          C  0.9511954  0.9160026  0.4051360    0.00000       Uiso       1.00
       O29          O  0.9261463  0.9070261  0.4163530    0.00000       Uiso       1.00
       O30          O  0.9619048  0.9104689  0.3773815    0.00000       Uiso       1.00
       H63          H  0.9472623  0.8994127  0.3697078    0.00000       Uiso       1.00
      C114          C  0.0116861  0.9041711  0.4873652    0.00000       Uiso       1.00
       O31          O  0.0206666  0.8993181  0.4623167    0.00000       Uiso       1.00
       O32          O  0.0172212  0.8926623  0.4980759    0.00000       Uiso       1.00
       H64          H  0.0282812  0.8814057  0.4834349    0.00000       Uiso       1.00
      C115          C  0.3222410  0.9314381  0.0365148    0.00000       Uiso       1.00
      C116          C  0.3365576  0.9334629  0.0506488    0.00000       Uiso       1.00
      C117          C  0.3648060  0.9375401  0.0385803    0.00000       Uiso       1.00
      C118          C  0.3365581  0.9334634  0.0100891    0.00000       Uiso       1.00
      C119          C  0.3648067  0.9375405  0.9979866    0.00000       Uiso       1.00
      C120          C  0.3795592  0.9386763  0.0114751    0.00000       Uiso       1.00
       H65          H  0.5143218  0.8767826  0.8390555    0.00000       Uiso       1.00
       H66          H  0.3251916  0.9317888  0.9982387    0.00000       Uiso       1.00
       H67          H  0.3251904  0.9317880  0.0721911    0.00000       Uiso       1.00
      C121          C  0.5726791  0.8911516  0.9962282    0.00000       Uiso       1.00
      C122          C  0.5462529  0.8770173  0.9942031    0.00000       Uiso       1.00
      C123          C  0.5341506  0.8890862  0.9901263    0.00000       Uiso       1.00
      C124          C  0.5868136  0.9175780  0.9942036    0.00000       Uiso       1.00
      C125          C  0.5747451  0.9296808  0.9901268    0.00000       Uiso       1.00
      C126          C  0.5476395  0.9161921  0.9889908    0.00000       Uiso       1.00
       H68          H  0.3752181  0.9404269  0.0508856    0.00000       Uiso       1.00
       H69          H  0.6083564  0.9294285  0.9958783    0.00000       Uiso       1.00
       H70          H  0.5344023  0.8554744  0.9958774    0.00000       Uiso       1.00
      C127          C  0.5726817  0.8911542  0.7860792    0.00000       Uiso       1.00
      C128          C  0.5868160  0.9175804  0.8003962    0.00000       Uiso       1.00
      C129          C  0.5747471  0.9296828  0.8286441    0.00000       Uiso       1.00
      C130          C  0.5462553  0.8770197  0.8003956    0.00000       Uiso       1.00
      C131          C  0.5341526  0.8890882  0.8286436    0.00000       Uiso       1.00
      C132          C  0.5476412  0.9161938  0.8433967    0.00000       Uiso       1.00
       H71          H  0.5234069  0.0886159  0.9781582    0.00000       Uiso       1.00
       H72          H  0.5344049  0.8554770  0.7890286    0.00000       Uiso       1.00
       H73          H  0.6083589  0.9294310  0.7890295    0.00000       Uiso       1.00
      C133          C  0.5323955  0.1415931  0.0365174    0.00000       Uiso       1.00
      C134          C  0.5303707  0.1272765  0.0100915    0.00000       Uiso       1.00
      C135          C  0.5262938  0.0990280  0.9979886    0.00000       Uiso       1.00
      C136          C  0.5303702  0.1272760  0.0506512    0.00000       Uiso       1.00
      C137          C  0.5262930  0.0990276  0.0385823    0.00000       Uiso       1.00
      C138          C  0.5251573  0.0842749  0.0114769    0.00000       Uiso       1.00
       H74          H  0.5870508  0.9495115  0.9872401    0.00000       Uiso       1.00
      C139          C  0.4999993  0.9638340  0.9638349    0.00000       Uiso       1.00
       H75          H  0.5320447  0.1386427  0.0721937    0.00000       Uiso       1.00
       H76          H  0.5320458  0.1386436  0.9982413    0.00000       Uiso       1.00
      C140          C  0.3796498  0.9416564  0.9697183    0.00000       Uiso       1.00
       O33          O  0.4045076  0.9453163  0.9582680    0.00000       Uiso       1.00
       O34          O  0.3652740  0.9412441  0.9574152    0.00000       Uiso       1.00
       H77          H  0.3774813  0.9440981  0.9400619    0.00000       Uiso       1.00
      C141          C  0.5221772  0.0841845  0.0561233    0.00000       Uiso       1.00
       O35          O  0.5185173  0.0593267  0.0463758    0.00000       Uiso       1.00
       O36          O  0.5225895  0.0985603  0.0823900    0.00000       Uiso       1.00
       H78          H  0.5197355  0.0863529  0.0903900    0.00000       Uiso       1.00
      C142          C  0.5058818  0.8715447  0.9860107    0.00000       Uiso       1.00
       O37          O  0.4944314  0.8812921  0.9823511    0.00000       Uiso       1.00
       O38          O  0.4935786  0.8452772  0.9864219    0.00000       Uiso       1.00
       H79          H  0.4762249  0.8372769  0.9835681    0.00000       Uiso       1.00
      C143          C  0.5922887  0.9579515  0.8434870    0.00000       Uiso       1.00
       O39          O  0.5825412  0.9694020  0.8683445    0.00000       Uiso       1.00
       O40          O  0.6185560  0.9702547  0.8291115    0.00000       Uiso       1.00
       H80          H  0.6265564  0.9876085  0.8413187    0.00000       Uiso       1.00
      C144          C  0.4098991  0.9438475  0.9987211    0.00000       Uiso       1.00
      C145          C  0.4225133  0.9335016  0.0043962    0.00000       Uiso       1.00
      C146          C  0.4510862  0.9390529  0.9930323    0.00000       Uiso       1.00
      C147          C  0.4266346  0.9596239  0.9810588    0.00000       Uiso       1.00
      C148          C  0.4550012  0.9646480  0.9692394    0.00000       Uiso       1.00
      C149          C  0.4679771  0.9544762  0.9748275    0.00000       Uiso       1.00
       H81          H  0.4923118  0.9098742  0.9503361    0.00000       Uiso       1.00
       H82          H  0.4727280  0.9283230  0.9234771    0.00000       Uiso       1.00
       H83          H  0.4180708  0.9689451  0.9769170    0.00000       Uiso       1.00
      C150          C  0.5348870  0.9286070  0.9838191    0.00000       Uiso       1.00
      C151          C  0.5172303  0.9119037  0.9680374    0.00000       Uiso       1.00
      C152          C  0.5054072  0.9234254  0.9630161    0.00000       Uiso       1.00
      C153          C  0.5405577  0.9572420  0.9941698    0.00000       Uiso       1.00
      C154          C  0.5291944  0.9688990  0.9886177    0.00000       Uiso       1.00
      C155          C  0.5109921  0.9521615  0.9731914    0.00000       Uiso       1.00
       H84          H  0.4596413  0.9317168  0.9993464    0.00000       Uiso       1.00
       H85          H  0.4865032  0.9966076  0.0177934    0.00000       Uiso       1.00
       H86          H  0.5130954  0.8898780  0.9587131    0.00000       Uiso       1.00
      C156          C  0.5352259  0.9289461  0.8737361    0.00000       Uiso       1.00
      C157          C  0.5519295  0.9466071  0.8904712    0.00000       Uiso       1.00
      C158          C  0.5404073  0.9584287  0.9188375    0.00000       Uiso       1.00
      C159          C  0.5065901  0.9232708  0.8863505    0.00000       Uiso       1.00
      C160          C  0.4949335  0.9346350  0.9149226    0.00000       Uiso       1.00
      C161          C  0.5116712  0.9528409  0.9318134    0.00000       Uiso       1.00
       H87          H  0.5321183  0.0041942  0.9365641    0.00000       Uiso       1.00
       H88          H  0.4672263  0.9773290  0.9561446    0.00000       Uiso       1.00
       H89          H  0.5739564  0.9507481  0.8819045    0.00000       Uiso       1.00
      C162          C  0.5199858  0.0539351  0.9990613    0.00000       Uiso       1.00
      C163          C  0.5303327  0.0413208  0.9704260    0.00000       Uiso       1.00
      C164          C  0.5247806  0.0127483  0.9587693    0.00000       Uiso       1.00
      C165          C  0.5042064  0.0371996  0.0157644    0.00000       Uiso       1.00
      C166          C  0.4991837  0.0088332  0.0042425    0.00000       Uiso       1.00
      C167          C  0.5093567  0.9958565  0.9755068    0.00000       Uiso       1.00
       H90          H  0.5539582  0.9715267  0.9310621    0.00000       Uiso       1.00
       H91          H  0.5355040  0.9911044  0.9959584    0.00000       Uiso       1.00
       H92          H  0.4948850  0.0457661  0.0377905    0.00000       Uiso       1.00
      C168          C  0.4873550  0.9041560  0.8689652    0.00000       Uiso       1.00
       O41          O  0.4623059  0.8993000  0.8801829    0.00000       Uiso       1.00
       O42          O  0.4980638  0.8926457  0.8412104    0.00000       Uiso       1.00
       H93          H  0.4834211  0.8813857  0.8335370    0.00000       Uiso       1.00
      C169          C  0.4051250  0.9159998  0.0235147    0.00000       Uiso       1.00
       O43          O  0.4163400  0.9070231  0.0283722    0.00000       Uiso       1.00
       O44          O  0.3773706  0.9104694  0.0350273    0.00000       Uiso       1.00
       H94          H  0.3696952  0.8994153  0.0462896    0.00000       Uiso       1.00
      C170          C  0.5478389  0.0587072  0.9511920    0.00000       Uiso       1.00
       O45          O  0.5568154  0.0474901  0.9261432    0.00000       Uiso       1.00
       O46          O  0.5533732  0.0864621  0.9619012    0.00000       Uiso       1.00
       H95          H  0.5644296  0.0941361  0.9472591    0.00000       Uiso       1.00
      C171          C  0.5596668  0.9764742  0.0116815    0.00000       Uiso       1.00
       O47          O  0.5645207  0.0015241  0.0206620    0.00000       Uiso       1.00
       O48          O  0.5711752  0.9657630  0.0172167    0.00000       Uiso       1.00
       H96          H  0.5824318  0.9804042  0.0282768    0.00000       Uiso       1.00
      C172          C  0.5323865  0.4273116  0.0365085    0.00000       Uiso       1.00
      C173          C  0.5303616  0.4537377  0.0506428    0.00000       Uiso       1.00
      C174          C  0.5262849  0.4658406  0.0385744    0.00000       Uiso       1.00
      C175          C  0.5303617  0.4131775  0.0100826    0.00000       Uiso       1.00
      C176          C  0.5262852  0.4252464  0.9979802    0.00000       Uiso       1.00
      C177          C  0.5251492  0.4523522  0.0114691    0.00000       Uiso       1.00
       H97          H  0.5870469  0.4765899  0.8390505    0.00000       Uiso       1.00
       H98          H  0.5320364  0.3916347  0.9982319    0.00000       Uiso       1.00
       H99          H  0.5320361  0.4655879  0.0721853    0.00000       Uiso       1.00
      C178          C  0.5726765  0.6777530  0.9962255    0.00000       Uiso       1.00
      C179          C  0.5868106  0.6634360  0.9942004    0.00000       Uiso       1.00
      C180          C  0.5747416  0.6351875  0.9901232    0.00000       Uiso       1.00
      C181          C  0.5462503  0.6634360  0.9942004    0.00000       Uiso       1.00
      C182          C  0.5341476  0.6351875  0.9901232    0.00000       Uiso       1.00
      C183          C  0.5476359  0.6204345  0.9889871    0.00000       Uiso       1.00
      H100          H  0.5233980  0.4856712  0.0508799    0.00000       Uiso       1.00
      H101          H  0.5344002  0.6748030  0.9958752    0.00000       Uiso       1.00
      H102          H  0.6083533  0.6748030  0.9958752    0.00000       Uiso       1.00
      C184          C  0.5726765  0.4676015  0.7860739    0.00000       Uiso       1.00
      C185          C  0.5462504  0.4696262  0.8003905    0.00000       Uiso       1.00
      C186          C  0.5341476  0.4737029  0.8286384    0.00000       Uiso       1.00
      C187          C  0.5868107  0.4696262  0.8003905    0.00000       Uiso       1.00
      C188          C  0.5747417  0.4737029  0.8286384    0.00000       Uiso       1.00
      C189          C  0.5476359  0.4748386  0.8433911    0.00000       Uiso       1.00
      H103          H  0.3752129  0.4129412  0.9781497    0.00000       Uiso       1.00
      H104          H  0.6083534  0.4679518  0.7890238    0.00000       Uiso       1.00
      H105          H  0.5344002  0.4679518  0.7890238    0.00000       Uiso       1.00
      C190          C  0.3222349  0.4273116  0.0365085    0.00000       Uiso       1.00
      C191          C  0.3365519  0.4131775  0.0100826    0.00000       Uiso       1.00
      C192          C  0.3648006  0.4252464  0.9979802    0.00000       Uiso       1.00
      C193          C  0.3365518  0.4537377  0.0506428    0.00000       Uiso       1.00
      C194          C  0.3648003  0.4658406  0.0385744    0.00000       Uiso       1.00
      C195          C  0.3795534  0.4523522  0.0114691    0.00000       Uiso       1.00
      H106          H  0.5143169  0.6247752  0.9872360    0.00000       Uiso       1.00
      C196          C  0.4999938  0.4999945  0.9638291    0.00000       Uiso       1.00
      H107          H  0.3251848  0.4655879  0.0721853    0.00000       Uiso       1.00
      H108          H  0.3251851  0.3916347  0.9982319    0.00000       Uiso       1.00
      C197          C  0.5221698  0.4077052  0.9697117    0.00000       Uiso       1.00
       O49          O  0.5185103  0.4174528  0.9582614    0.00000       Uiso       1.00
       O50          O  0.5225821  0.3814382  0.9574082    0.00000       Uiso       1.00
      H109          H  0.5197285  0.3734381  0.9400547    0.00000       Uiso       1.00
      C198          C  0.3796431  0.4941093  0.0561160    0.00000       Uiso       1.00
       O51          O  0.4045011  0.5055602  0.0463689    0.00000       Uiso       1.00
       O52          O  0.3652670  0.5064124  0.0823826    0.00000       Uiso       1.00
      H110          H  0.3774742  0.5237661  0.0903830    0.00000       Uiso       1.00
      C199          C  0.5922829  0.6203447  0.9860076    0.00000       Uiso       1.00
       O53          O  0.5825353  0.5954868  0.9823475    0.00000       Uiso       1.00
       O54          O  0.6185501  0.6347207  0.9864193    0.00000       Uiso       1.00
      H111          H  0.6265503  0.6225134  0.9835654    0.00000       Uiso       1.00
      C200          C  0.5058789  0.4778183  0.8434810    0.00000       Uiso       1.00
       O55          O  0.4944280  0.4814778  0.8683384    0.00000       Uiso       1.00
       O56          O  0.4935761  0.4774068  0.8291054    0.00000       Uiso       1.00
      H112          H  0.4762224  0.4802605  0.8413123    0.00000       Uiso       1.00
      C201          C  0.5199788  0.4647667  0.9987150    0.00000       Uiso       1.00
      C202          C  0.5303245  0.4934026  0.0043908    0.00000       Uiso       1.00
      C203          C  0.5247738  0.5050603  0.9930269    0.00000       Uiso       1.00
      C204          C  0.5042027  0.4480631  0.9810523    0.00000       Uiso       1.00
      C205          C  0.4991791  0.4595863  0.9692330    0.00000       Uiso       1.00
      C206          C  0.5093510  0.4883226  0.9748216    0.00000       Uiso       1.00
      H113          H  0.5539536  0.5327690  0.9503314    0.00000       Uiso       1.00
      H114          H  0.5355049  0.4678763  0.9234713    0.00000       Uiso       1.00
      H115          H  0.4948815  0.4260359  0.9769102    0.00000       Uiso       1.00
      C207          C  0.5352209  0.5900949  0.9838148    0.00000       Uiso       1.00
      C208          C  0.5519240  0.5733597  0.9680332    0.00000       Uiso       1.00
      C209          C  0.5404024  0.5449931  0.9630114    0.00000       Uiso       1.00
      C210          C  0.5065860  0.5774809  0.9941650    0.00000       Uiso       1.00
      C211          C  0.4949288  0.5489079  0.9886125    0.00000       Uiso       1.00
      C212          C  0.5116663  0.5320168  0.9731862    0.00000       Uiso       1.00
      H116          H  0.5321100  0.5272657  0.9993412    0.00000       Uiso       1.00
      H117          H  0.4672191  0.5076831  0.0177873    0.00000       Uiso       1.00
      H118          H  0.5739499  0.5819266  0.9587092    0.00000       Uiso       1.00
      C213          C  0.5348833  0.4800104  0.8737304    0.00000       Uiso       1.00
      C214          C  0.5172223  0.4957880  0.8904656    0.00000       Uiso       1.00
      C215          C  0.5054001  0.5008104  0.9188318    0.00000       Uiso       1.00
      C216          C  0.5405580  0.4696642  0.8863448    0.00000       Uiso       1.00
      C217          C  0.5291933  0.4752153  0.9149169    0.00000       Uiso       1.00
      C218          C  0.5109875  0.4906380  0.9318076    0.00000       Uiso       1.00
      H119          H  0.4596353  0.4644820  0.9365574    0.00000       Uiso       1.00
      H120          H  0.4864985  0.4460354  0.9561380    0.00000       Uiso       1.00
      H121          H  0.5130816  0.5051073  0.8818989    0.00000       Uiso       1.00
      C219          C  0.4098934  0.4651051  0.9990540    0.00000       Uiso       1.00
      C220          C  0.4225081  0.4594312  0.9704188    0.00000       Uiso       1.00
      C221          C  0.4510807  0.4707954  0.9587625    0.00000       Uiso       1.00
      C222          C  0.4266283  0.4827649  0.0157574    0.00000       Uiso       1.00
      C223          C  0.4549949  0.4945872  0.0042360    0.00000       Uiso       1.00
      C224          C  0.4679713  0.4890007  0.9755004    0.00000       Uiso       1.00
      H122          H  0.4923022  0.5134880  0.9310564    0.00000       Uiso       1.00
      H123          H  0.4727233  0.5403524  0.9959528    0.00000       Uiso       1.00
      H124          H  0.4180614  0.4869031  0.0377836    0.00000       Uiso       1.00
      C225          C  0.5596728  0.4521586  0.8689595    0.00000       Uiso       1.00
       O57          O  0.5645283  0.4431831  0.8801772    0.00000       Uiso       1.00
       O58          O  0.5711836  0.4466231  0.8412048    0.00000       Uiso       1.00
      H125          H  0.5824436  0.4355670  0.8335315    0.00000       Uiso       1.00
      C226          C  0.5478259  0.5126351  0.0235097    0.00000       Uiso       1.00
       O59          O  0.5568026  0.5376847  0.0283676    0.00000       Uiso       1.00
       O60          O  0.5533558  0.5019236  0.0350222    0.00000       Uiso       1.00
      H126          H  0.5644096  0.5165649  0.0462848    0.00000       Uiso       1.00
      C227          C  0.4051222  0.4403165  0.9511843    0.00000       Uiso       1.00
       O61          O  0.4163397  0.4354614  0.9261356    0.00000       Uiso       1.00
       O62          O  0.3773673  0.4288046  0.9618930    0.00000       Uiso       1.00
      H127          H  0.3696936  0.4175447  0.9472507    0.00000       Uiso       1.00
      C228          C  0.4873535  0.5948695  0.0116767    0.00000       Uiso       1.00
       O63          O  0.4623045  0.5836540  0.0206568    0.00000       Uiso       1.00
       O64          O  0.4980648  0.6226248  0.0172124    0.00000       Uiso       1.00
      H128          H  0.4834236  0.6303002  0.0282724    0.00000       Uiso       1.00
      C229          C  0.0365165  0.4273205  0.3222450    0.00000       Uiso       1.00
      C230          C  0.0506508  0.4537466  0.3365619    0.00000       Uiso       1.00
      C231          C  0.0385819  0.4658489  0.3648099    0.00000       Uiso       1.00
      C232          C  0.0100901  0.4131859  0.3365614    0.00000       Uiso       1.00
      C233          C  0.9979867  0.4252544  0.3648094    0.00000       Uiso       1.00
      C234          C  0.0114760  0.4523601  0.3795624    0.00000       Uiso       1.00
      H129          H  0.8390533  0.4765939  0.5143221    0.00000       Uiso       1.00
      H130          H  0.9982390  0.3916432  0.3251944    0.00000       Uiso       1.00
      H131          H  0.0721937  0.4655972  0.3251953    0.00000       Uiso       1.00
      C235          C  0.9962294  0.6777583  0.5726830    0.00000       Uiso       1.00
      C236          C  0.9942046  0.6634417  0.5462571    0.00000       Uiso       1.00
      C237          C  0.9901274  0.6351933  0.5341544    0.00000       Uiso       1.00
      C238          C  0.9942040  0.6634411  0.5868168    0.00000       Uiso       1.00
      C239          C  0.9901269  0.6351928  0.5747479    0.00000       Uiso       1.00
      C240          C  0.9889912  0.6204401  0.5476426    0.00000       Uiso       1.00
      H132          H  0.0508874  0.4856796  0.3752222    0.00000       Uiso       1.00
      H133          H  0.9958785  0.6748079  0.6083593    0.00000       Uiso       1.00
      H134          H  0.9958795  0.6748089  0.5344071    0.00000       Uiso       1.00
      C241          C  0.7860753  0.4676042  0.5726804    0.00000       Uiso       1.00
      C242          C  0.8003919  0.4696290  0.5868145    0.00000       Uiso       1.00
      C243          C  0.8286403  0.4737062  0.5747460    0.00000       Uiso       1.00
      C244          C  0.8003924  0.4696295  0.5462547    0.00000       Uiso       1.00
      C245          C  0.8286408  0.4737067  0.5341524    0.00000       Uiso       1.00
      C246          C  0.8433935  0.4748424  0.5476407    0.00000       Uiso       1.00
      H135          H  0.9781541  0.4129469  0.5234050    0.00000       Uiso       1.00
      H136          H  0.7890257  0.4679550  0.5344045    0.00000       Uiso       1.00
      H137          H  0.7890248  0.4679541  0.6083568    0.00000       Uiso       1.00
      C247          C  0.0365139  0.4273178  0.5323940    0.00000       Uiso       1.00
      C248          C  0.0100877  0.4131835  0.5303689    0.00000       Uiso       1.00
      C249          C  0.9979847  0.4252524  0.5262921    0.00000       Uiso       1.00
      C250          C  0.0506484  0.4537442  0.5303694    0.00000       Uiso       1.00
      C251          C  0.0385799  0.4658469  0.5262926    0.00000       Uiso       1.00
      C252          C  0.0114743  0.4523582  0.5251566    0.00000       Uiso       1.00
      H138          H  0.9872396  0.6247803  0.5870530    0.00000       Uiso       1.00
      C253          C  0.9638336  0.5000004  0.5000005    0.00000       Uiso       1.00
      H139          H  0.0721912  0.4655946  0.5320441    0.00000       Uiso       1.00
      H140          H  0.9982364  0.3916406  0.5320432    0.00000       Uiso       1.00
      C254          C  0.9697177  0.4077126  0.3796517    0.00000       Uiso       1.00
       O65          O  0.9582669  0.4174597  0.4045092    0.00000       Uiso       1.00
       O66          O  0.9574143  0.3814457  0.3652756    0.00000       Uiso       1.00
      H141          H  0.9400604  0.3734452  0.3774825    0.00000       Uiso       1.00
      C255          C  0.0561217  0.4941159  0.5221775    0.00000       Uiso       1.00
       O67          O  0.0463746  0.5055667  0.5185180    0.00000       Uiso       1.00
       O68          O  0.0823886  0.5064193  0.5225902    0.00000       Uiso       1.00
      H142          H  0.0903891  0.5237732  0.5197366    0.00000       Uiso       1.00
      C256          C  0.9860120  0.6203507  0.5058859    0.00000       Uiso       1.00
       O69          O  0.9823522  0.5954930  0.4944352    0.00000       Uiso       1.00
       O70          O  0.9864240  0.6347269  0.4935834    0.00000       Uiso       1.00
      H143          H  0.9835703  0.6225199  0.4762298    0.00000       Uiso       1.00
      C257          C  0.8434829  0.4778214  0.5922872    0.00000       Uiso       1.00
       O71          O  0.8683407  0.4814814  0.5825400    0.00000       Uiso       1.00
       O72          O  0.8291067  0.4774095  0.6185539    0.00000       Uiso       1.00
      H144          H  0.8413138  0.4802632  0.6265541    0.00000       Uiso       1.00
      C258          C  0.9987210  0.4647742  0.4099017    0.00000       Uiso       1.00
      C259          C  0.0043971  0.4934099  0.4225165    0.00000       Uiso       1.00
      C260          C  0.9930323  0.5050671  0.4510888    0.00000       Uiso       1.00
      C261          C  0.9810579  0.4480701  0.4266364    0.00000       Uiso       1.00
      C262          C  0.9692380  0.4595927  0.4550026    0.00000       Uiso       1.00
      C263          C  0.9748266  0.4883289  0.4679789    0.00000       Uiso       1.00
      H145          H  0.9503357  0.5327747  0.4923140    0.00000       Uiso       1.00
      H146          H  0.9234756  0.4678819  0.4727291    0.00000       Uiso       1.00
      H147          H  0.9769158  0.4260429  0.4180722    0.00000       Uiso       1.00
      C264          C  0.9838191  0.5901005  0.5348896    0.00000       Uiso       1.00
      C265          C  0.9680374  0.5733653  0.5172329    0.00000       Uiso       1.00
      C266          C  0.9630157  0.5449988  0.5054094    0.00000       Uiso       1.00
      C267          C  0.9941693  0.5774866  0.5405599    0.00000       Uiso       1.00
      C268          C  0.9886168  0.5489137  0.5291962    0.00000       Uiso       1.00
      C269          C  0.9731905  0.5320226  0.5109939    0.00000       Uiso       1.00
      H148          H  0.9993466  0.5272725  0.4596442    0.00000       Uiso       1.00
      H149          H  0.0177930  0.5076897  0.4865053    0.00000       Uiso       1.00
      H150          H  0.9587133  0.5819322  0.5130984    0.00000       Uiso       1.00
      C270          C  0.8737333  0.4800147  0.5352259    0.00000       Uiso       1.00
      C271          C  0.8904684  0.4957923  0.5519294    0.00000       Uiso       1.00
      C272          C  0.9188352  0.5008152  0.5404077    0.00000       Uiso       1.00
      C273          C  0.8863482  0.4696690  0.5065904    0.00000       Uiso       1.00
      C274          C  0.9149207  0.4752206  0.4949343    0.00000       Uiso       1.00
      C275          C  0.9318115  0.4906432  0.5116719    0.00000       Uiso       1.00
      H151          H  0.9365611  0.4644871  0.5321174    0.00000       Uiso       1.00
      H152          H  0.9561427  0.4460415  0.4672271    0.00000       Uiso       1.00
      H153          H  0.8819014  0.5051112  0.5739560    0.00000       Uiso       1.00
      C276          C  0.9990585  0.4651111  0.5199852    0.00000       Uiso       1.00
      C277          C  0.9704229  0.4594367  0.5303318    0.00000       Uiso       1.00
      C278          C  0.9587666  0.4708008  0.5247801    0.00000       Uiso       1.00
      C279          C  0.0157629  0.4827712  0.5042069    0.00000       Uiso       1.00
      C280          C  0.0042415  0.4945935  0.4991846    0.00000       Uiso       1.00
      C281          C  0.9755049  0.4890065  0.5093575    0.00000       Uiso       1.00
      H154          H  0.9310597  0.5134927  0.5539585    0.00000       Uiso       1.00
      H155          H  0.9959571  0.5403582  0.5355054    0.00000       Uiso       1.00
      H156          H  0.0377894  0.4869099  0.4948859    0.00000       Uiso       1.00
      C282          C  0.8689629  0.4521634  0.4873554    0.00000       Uiso       1.00
       O73          O  0.8801810  0.4431883  0.4623066    0.00000       Uiso       1.00
       O74          O  0.8412078  0.4466273  0.4980638    0.00000       Uiso       1.00
      H157          H  0.8335345  0.4355715  0.4834211    0.00000       Uiso       1.00
      C283          C  0.0235164  0.5126428  0.4051291    0.00000       Uiso       1.00
       O75          O  0.0283743  0.5376922  0.4163445    0.00000       Uiso       1.00
       O76          O  0.0350294  0.5019317  0.3773752    0.00000       Uiso       1.00
      H158          H  0.0462923  0.5165734  0.3697003    0.00000       Uiso       1.00
      C284          C  0.9511880  0.4403216  0.5478371    0.00000       Uiso       1.00
       O77          O  0.9261389  0.4354661  0.5568132    0.00000       Uiso       1.00
       O78          O  0.9618968  0.4288097  0.5533709    0.00000       Uiso       1.00
      H159          H  0.9472541  0.4175495  0.5644268    0.00000       Uiso       1.00
      C285          C  0.0116815  0.5948751  0.5596692    0.00000       Uiso       1.00
       O79          O  0.0206615  0.5836596  0.5645223    0.00000       Uiso       1.00
       O80          O  0.0172171  0.6226303  0.5711780    0.00000       Uiso       1.00
      H160          H  0.0282770  0.6303057  0.5824345    0.00000       Uiso       1.00
      C286          C  0.0365165  0.1415931  0.0365174    0.00000       Uiso       1.00
      C287          C  0.0100902  0.1272760  0.0506512    0.00000       Uiso       1.00
      C288          C  0.9979868  0.0990276  0.0385823    0.00000       Uiso       1.00
      C289          C  0.0506509  0.1272765  0.0100915    0.00000       Uiso       1.00
      C290          C  0.0385822  0.0990280  0.9979886    0.00000       Uiso       1.00
      C291          C  0.0114761  0.0842749  0.0114769    0.00000       Uiso       1.00
      H161          H  0.9872404  0.9495134  0.8390564    0.00000       Uiso       1.00
      H162          H  0.0721940  0.1386436  0.9982413    0.00000       Uiso       1.00
      H163          H  0.9982390  0.1386427  0.0721937    0.00000       Uiso       1.00
      C292          C  0.7860752  0.8911516  0.9962282    0.00000       Uiso       1.00
      C293          C  0.8003923  0.9175780  0.9942036    0.00000       Uiso       1.00
      C294          C  0.8286407  0.9296808  0.9901268    0.00000       Uiso       1.00
      C295          C  0.8003919  0.8770173  0.9942031    0.00000       Uiso       1.00
      C296          C  0.8286402  0.8890862  0.9901263    0.00000       Uiso       1.00
      C297          C  0.8433934  0.9161921  0.9889908    0.00000       Uiso       1.00
      H164          H  0.9781560  0.0886151  0.0508874    0.00000       Uiso       1.00
      H165          H  0.7890247  0.8554744  0.9958774    0.00000       Uiso       1.00
      H166          H  0.7890255  0.9294285  0.9958783    0.00000       Uiso       1.00
      C298          C  0.9962293  0.8911542  0.7860792    0.00000       Uiso       1.00
      C299          C  0.9942040  0.8770197  0.8003956    0.00000       Uiso       1.00
      C300          C  0.9901268  0.8890882  0.8286436    0.00000       Uiso       1.00
      C301          C  0.9942045  0.9175804  0.8003962    0.00000       Uiso       1.00
      C302          C  0.9901273  0.9296828  0.8286441    0.00000       Uiso       1.00
      C303          C  0.9889911  0.9161938  0.8433967    0.00000       Uiso       1.00
      H167          H  0.0508854  0.9404278  0.9781563    0.00000       Uiso       1.00
      H168          H  0.9958794  0.9294310  0.7890295    0.00000       Uiso       1.00
      H169          H  0.9958785  0.8554770  0.7890286    0.00000       Uiso       1.00
      C304          C  0.0365135  0.9314381  0.0365148    0.00000       Uiso       1.00
      C305          C  0.0506481  0.9334634  0.0100891    0.00000       Uiso       1.00
      C306          C  0.0385798  0.9375405  0.9979866    0.00000       Uiso       1.00
      C307          C  0.0100873  0.9334629  0.0506488    0.00000       Uiso       1.00
      C308          C  0.9979843  0.9375401  0.0385803    0.00000       Uiso       1.00
      C309          C  0.0114739  0.9386763  0.0114751    0.00000       Uiso       1.00
      H170          H  0.8390523  0.8767807  0.9872392    0.00000       Uiso       1.00
      C310          C  0.9638331  0.9638340  0.9638349    0.00000       Uiso       1.00
      H171          H  0.9982361  0.9317880  0.0721911    0.00000       Uiso       1.00
      H172          H  0.0721910  0.9317888  0.9982387    0.00000       Uiso       1.00
      C311          C  0.0561238  0.0841855  0.9697202    0.00000       Uiso       1.00
       O81          O  0.0463763  0.0593277  0.9582694    0.00000       Uiso       1.00
       O82          O  0.0823909  0.0985618  0.9574172    0.00000       Uiso       1.00
      H173          H  0.0903912  0.0863547  0.9400636    0.00000       Uiso       1.00
      C312          C  0.9697155  0.9416553  0.0561216    0.00000       Uiso       1.00
       O83          O  0.9582651  0.9453152  0.0463744    0.00000       Uiso       1.00
       O84          O  0.9574120  0.9412426  0.0823880    0.00000       Uiso       1.00
      H174          H  0.9400583  0.9440963  0.0903882    0.00000       Uiso       1.00
      C313          C  0.8434837  0.9579497  0.9860117    0.00000       Uiso       1.00
       O85          O  0.8683416  0.9694005  0.9823522    0.00000       Uiso       1.00
       O86          O  0.8291082  0.9702528  0.9864235    0.00000       Uiso       1.00
      H175          H  0.8413155  0.9876066  0.9835700    0.00000       Uiso       1.00
      C314          C  0.9860110  0.8715464  0.8434859    0.00000       Uiso       1.00
       O87          O  0.9823510  0.8812935  0.8683434    0.00000       Uiso       1.00
       O88          O  0.9864224  0.8452792  0.8291100    0.00000       Uiso       1.00
      H176          H  0.9835684  0.8372787  0.8413169    0.00000       Uiso       1.00
      C315          C  0.9990611  0.0539351  0.9987225    0.00000       Uiso       1.00
      C316          C  0.9704252  0.0413204  0.0043976    0.00000       Uiso       1.00
      C317          C  0.9587679  0.0127476  0.9930333    0.00000       Uiso       1.00
      C318          C  0.0157655  0.0372000  0.9810597    0.00000       Uiso       1.00
      C319          C  0.0042425  0.0088334  0.9692399    0.00000       Uiso       1.00
      C320          C  0.9755051  0.9958562  0.9748280    0.00000       Uiso       1.00
      H177          H  0.9310594  0.9715213  0.9503369    0.00000       Uiso       1.00
      H178          H  0.9959522  0.9911063  0.9234778    0.00000       Uiso       1.00
      H179          H  0.0377927  0.0457642  0.9769180    0.00000       Uiso       1.00
      C321          C  0.8737329  0.9289449  0.9838191    0.00000       Uiso       1.00
      C322          C  0.8904685  0.9466022  0.9680378    0.00000       Uiso       1.00
      C323          C  0.9188350  0.9584256  0.9630166    0.00000       Uiso       1.00
      C324          C  0.8863465  0.9232742  0.9941694    0.00000       Uiso       1.00
      C325          C  0.9149193  0.9346380  0.9886172    0.00000       Uiso       1.00
      C326          C  0.9318109  0.9528407  0.9731914    0.00000       Uiso       1.00
      H180          H  0.9365624  0.0041922  0.9993472    0.00000       Uiso       1.00
      H181          H  0.9561433  0.9773291  0.0177932    0.00000       Uiso       1.00
      H182          H  0.8819020  0.9507371  0.9587138    0.00000       Uiso       1.00
      C327          C  0.9838187  0.9286088  0.8737361    0.00000       Uiso       1.00
      C328          C  0.9680407  0.9119048  0.8904707    0.00000       Uiso       1.00
      C329          C  0.9630178  0.9234265  0.9188370    0.00000       Uiso       1.00
      C330          C  0.9941649  0.9572446  0.8863509    0.00000       Uiso       1.00
      C331          C  0.9886132  0.9689007  0.9149230    0.00000       Uiso       1.00
      C332          C  0.9731902  0.9521626  0.9318134    0.00000       Uiso       1.00
      H183          H  0.9993455  0.9317163  0.9365632    0.00000       Uiso       1.00
      H184          H  0.0177929  0.9966077  0.9561448    0.00000       Uiso       1.00
      H185          H  0.9587215  0.8898779  0.8819038    0.00000       Uiso       1.00
      C333          C  0.9987210  0.9438480  0.9990599    0.00000       Uiso       1.00
      C334          C  0.0043961  0.9335014  0.9704247    0.00000       Uiso       1.00
      C335          C  0.9930317  0.9390535  0.9587684    0.00000       Uiso       1.00
      C336          C  0.9810610  0.9596268  0.0157634    0.00000       Uiso       1.00
      C337          C  0.9692392  0.9646495  0.0042419    0.00000       Uiso       1.00
      C338          C  0.9748264  0.9544766  0.9755062    0.00000       Uiso       1.00
      H186          H  0.9503400  0.9098754  0.9310613    0.00000       Uiso       1.00
      H187          H  0.9234745  0.9283284  0.9959577    0.00000       Uiso       1.00
      H188          H  0.9769224  0.9689478  0.0377896    0.00000       Uiso       1.00
      C339          C  0.0116717  0.9764801  0.8689660    0.00000       Uiso       1.00
       O89          O  0.0206476  0.0015301  0.8801841    0.00000       Uiso       1.00
       O90          O  0.0172077  0.9657717  0.8412113    0.00000       Uiso       1.00
      H189          H  0.0282639  0.9804147  0.8335383    0.00000       Uiso       1.00
      C340          C  0.9511927  0.0587082  0.0235165    0.00000       Uiso       1.00
       O91          O  0.9261432  0.0474928  0.0283739    0.00000       Uiso       1.00
       O92          O  0.9619042  0.0864625  0.0350295    0.00000       Uiso       1.00
      H190          H  0.9472628  0.0941376  0.0462921    0.00000       Uiso       1.00
      C341          C  0.0235108  0.9159957  0.9511902    0.00000       Uiso       1.00
       O93          O  0.0283663  0.9070197  0.9261415    0.00000       Uiso       1.00
       O94          O  0.0350222  0.9104615  0.9618991    0.00000       Uiso       1.00
      H191          H  0.0462822  0.8994054  0.9472567    0.00000       Uiso       1.00
      C342          C  0.8689572  0.9041646  0.0116806    0.00000       Uiso       1.00
       O95          O  0.8801723  0.8993112  0.0206607    0.00000       Uiso       1.00
       O96          O  0.8412021  0.8926558  0.0172158    0.00000       Uiso       1.00
      H192          H  0.8335263  0.8813990  0.0282755    0.00000       Uiso       1.00
        B1          B  0.7546676  0.8770123  0.5868297    0.00000       Uiso       1.00
        B2          B  0.5868263  0.7091709  0.5868276    0.00000       Uiso       1.00
        B3          B  0.5868263  0.8770102  0.7546670    0.00000       Uiso       1.00
      C343          C  0.6662237  0.8216304  0.6180246    0.00000       Uiso       1.00
      C344          C  0.7137993  0.8458259  0.5951285    0.00000       Uiso       1.00
      H193          H  0.6926231  0.8051572  0.5752437    0.00000       Uiso       1.00
       O97          O  0.7388530  0.8488045  0.5738819    0.00000       Uiso       1.00
      C345          C  0.6906893  0.8223170  0.5944386    0.00000       Uiso       1.00
      C346          C  0.6180227  0.7976141  0.6422088    0.00000       Uiso       1.00
      C347          C  0.5951257  0.7500389  0.6180136    0.00000       Uiso       1.00
      H194          H  0.5752409  0.7712146  0.6586818    0.00000       Uiso       1.00
       O98          O  0.5738785  0.7249851  0.6150351    0.00000       Uiso       1.00
      C348          C  0.5944360  0.7731485  0.6415222    0.00000       Uiso       1.00
      C349          C  0.6422077  0.8458148  0.6662247    0.00000       Uiso       1.00
      C350          C  0.6180125  0.8687112  0.7137995    0.00000       Uiso       1.00
      H195          H  0.6586815  0.8885964  0.6926240    0.00000       Uiso       1.00
       O99          O  0.6150342  0.8899581  0.7388530    0.00000       Uiso       1.00
      C351          C  0.6415215  0.8694012  0.6906900    0.00000       Uiso       1.00
      C352          C  0.6422077  0.7976145  0.6180243    0.00000       Uiso       1.00
      C353          C  0.6180126  0.7500392  0.5951273    0.00000       Uiso       1.00
      O100          O  0.6150342  0.7249856  0.5738803    0.00000       Uiso       1.00
      H196          H  0.6586815  0.7712157  0.5752432    0.00000       Uiso       1.00
      C354          C  0.6415215  0.7731491  0.5944380    0.00000       Uiso       1.00
      C355          C  0.6662237  0.8458151  0.6422094    0.00000       Uiso       1.00
      C356          C  0.7137992  0.8687124  0.6180151    0.00000       Uiso       1.00
      H197          H  0.6926231  0.8885968  0.6586833    0.00000       Uiso       1.00
      O101          O  0.7388530  0.8899597  0.6150371    0.00000       Uiso       1.00
      C357          C  0.6906893  0.8694018  0.6415234    0.00000       Uiso       1.00
      C358          C  0.6180227  0.8216298  0.6662245    0.00000       Uiso       1.00
      C359          C  0.5951257  0.8458244  0.7137992    0.00000       Uiso       1.00
      H198          H  0.5752409  0.8051557  0.6926229    0.00000       Uiso       1.00
      O102          O  0.5738785  0.8488024  0.7388524    0.00000       Uiso       1.00
      C360          C  0.5944360  0.8223158  0.6906895    0.00000       Uiso       1.00
        B4          B  0.5868213  0.4644781  0.7546618    0.00000       Uiso       1.00
        B5          B  0.5868234  0.4644803  0.5868245    0.00000       Uiso       1.00
        B6          B  0.7546627  0.4644803  0.5868245    0.00000       Uiso       1.00
      C361          C  0.6180184  0.4626131  0.6662199    0.00000       Uiso       1.00
      C362          C  0.5951211  0.4630960  0.7137944    0.00000       Uiso       1.00
      H199          H  0.5752367  0.4627041  0.6926187    0.00000       Uiso       1.00
      O103          O  0.5738738  0.4639239  0.7388476    0.00000       Uiso       1.00
      C363          C  0.5944317  0.4628055  0.6906850    0.00000       Uiso       1.00
      C364          C  0.6422037  0.4626138  0.6180202    0.00000       Uiso       1.00
      C365          C  0.6180092  0.4630975  0.5951237    0.00000       Uiso       1.00
      H200          H  0.6586778  0.4627056  0.5752394    0.00000       Uiso       1.00
      O104          O  0.6150311  0.4639260  0.5738770    0.00000       Uiso       1.00
      C366          C  0.6415178  0.4628068  0.5944341    0.00000       Uiso       1.00
      C367          C  0.6662191  0.4626135  0.6422046    0.00000       Uiso       1.00
      C368          C  0.7137944  0.4630972  0.6180100    0.00000       Uiso       1.00
      H201          H  0.6926179  0.4627045  0.6586780    0.00000       Uiso       1.00
      O105          O  0.7388480  0.4639255  0.6150318    0.00000       Uiso       1.00
      C369          C  0.6906844  0.4628062  0.6415184    0.00000       Uiso       1.00
      C370          C  0.6180187  0.4626135  0.6422046    0.00000       Uiso       1.00
      C371          C  0.5951223  0.4630972  0.6180100    0.00000       Uiso       1.00
      O106          O  0.5738754  0.4639255  0.6150318    0.00000       Uiso       1.00
      H202          H  0.5752372  0.4627045  0.6586780    0.00000       Uiso       1.00
      C372          C  0.5944324  0.4628062  0.6415184    0.00000       Uiso       1.00
      C373          C  0.6422032  0.4626131  0.6662199    0.00000       Uiso       1.00
      C374          C  0.6180077  0.4630960  0.7137944    0.00000       Uiso       1.00
      H203          H  0.6586763  0.4627041  0.6926187    0.00000       Uiso       1.00
      O107          O  0.6150290  0.4639239  0.7388476    0.00000       Uiso       1.00
      C375          C  0.6415165  0.4628055  0.6906850    0.00000       Uiso       1.00
      C376          C  0.6662194  0.4626138  0.6180202    0.00000       Uiso       1.00
      C377          C  0.7137946  0.4630975  0.5951237    0.00000       Uiso       1.00
      H204          H  0.6926189  0.4627056  0.5752394    0.00000       Uiso       1.00
      O108          O  0.7388485  0.4639260  0.5738770    0.00000       Uiso       1.00
      C378          C  0.6906850  0.4628068  0.5944341    0.00000       Uiso       1.00
      C379          C  0.2498838  0.3822890  0.5374368    0.00000       Uiso       1.00
      C380          C  0.2262439  0.3588215  0.5388507    0.00000       Uiso       1.00
      C381          C  0.2254921  0.3362976  0.5415989    0.00000       Uiso       1.00
      C382          C  0.2021278  0.3124306  0.5415863    0.00000       Uiso       1.00
      C383          C  0.1795294  0.3099271  0.5372586    0.00000       Uiso       1.00
      C384          C  0.1809044  0.3327311  0.5341131    0.00000       Uiso       1.00
      C385          C  0.2029932  0.3579015  0.5368189    0.00000       Uiso       1.00
      O109          O  0.2746721  0.3860548  0.5380297    0.00000       Uiso       1.00
      H205          H  0.2431371  0.3373011  0.5437835    0.00000       Uiso       1.00
      H206          H  0.2022284  0.2960041  0.5446942    0.00000       Uiso       1.00
      H207          H  0.1655457  0.3303646  0.5277743    0.00000       Uiso       1.00
      C386          C  0.0815100  0.4050362  0.5375097    0.00000       Uiso       1.00
      C387          C  0.1049711  0.4062811  0.5389404    0.00000       Uiso       1.00
      C388          C  0.1275038  0.4307964  0.5416755    0.00000       Uiso       1.00
      C389          C  0.1513713  0.4312797  0.5416551    0.00000       Uiso       1.00
      C390          C  0.1538708  0.4068545  0.5373256    0.00000       Uiso       1.00
      C391          C  0.1310506  0.3822884  0.5342067    0.00000       Uiso       1.00
      C392          C  0.1058799  0.3819214  0.5369236    0.00000       Uiso       1.00
      O110          O  0.0777643  0.4266449  0.5380655    0.00000       Uiso       1.00
      H208          H  0.1265153  0.4496215  0.5438423    0.00000       Uiso       1.00
      H209          H  0.1678036  0.4509119  0.5447498    0.00000       Uiso       1.00
      H210          H  0.1334009  0.3629520  0.5278698    0.00000       Uiso       1.00
      C393          C  0.0588049  0.2139669  0.5374824    0.00000       Uiso       1.00
      C394          C  0.0575546  0.2376181  0.5389346    0.00000       Uiso       1.00
      C395          C  0.0330266  0.2383742  0.5417078    0.00000       Uiso       1.00
      C396          C  0.0325258  0.2617476  0.5417221    0.00000       Uiso       1.00
      C397          C  0.0569468  0.2843499  0.5373970    0.00000       Uiso       1.00
      C398          C  0.0815280  0.2829746  0.5342413    0.00000       Uiso       1.00
      C399          C  0.0819143  0.2608705  0.5369112    0.00000       Uiso       1.00
      O111          O  0.0371877  0.1891800  0.5380700    0.00000       Uiso       1.00
      H211          H  0.0142079  0.2207168  0.5438772    0.00000       Uiso       1.00
      H212          H  0.0128872  0.2616460  0.5448367    0.00000       Uiso       1.00
      H213          H  0.1008578  0.2983398  0.5279126    0.00000       Uiso       1.00
      C400          C  0.0829520  0.2128435  0.5339064    0.00000       Uiso       1.00
      C401          C  0.1071159  0.2358337  0.5332515    0.00000       Uiso       1.00
      C402          C  0.1315947  0.2347896  0.5302575    0.00000       Uiso       1.00
      C403          C  0.1552817  0.2583313  0.5306995    0.00000       Uiso       1.00
      C404          C  0.1545894  0.2839215  0.5357409    0.00000       Uiso       1.00
      C405          C  0.1295107  0.2846364  0.5393286    0.00000       Uiso       1.00
      C406          C  0.1063472  0.2606290  0.5361192    0.00000       Uiso       1.00
      O112          O  0.0800583  0.1872358  0.5318675    0.00000       Uiso       1.00
      H214          H  0.1323079  0.2155735  0.5274650    0.00000       Uiso       1.00
      H215          H  0.1739104  0.2561772  0.5272813    0.00000       Uiso       1.00
      H216          H  0.1274064  0.3042387  0.5462551    0.00000       Uiso       1.00
      C407          C  0.0597938  0.3808981  0.5339807    0.00000       Uiso       1.00
      C408          C  0.0592673  0.3567425  0.5333509    0.00000       Uiso       1.00
      C409          C  0.0367144  0.3322758  0.5304160    0.00000       Uiso       1.00
      C410          C  0.0361263  0.3085986  0.5308757    0.00000       Uiso       1.00
      C411          C  0.0573953  0.3092844  0.5358706    0.00000       Uiso       1.00
      C412          C  0.0796226  0.3343531  0.5394032    0.00000       Uiso       1.00
      C413          C  0.0819817  0.3575049  0.5361805    0.00000       Uiso       1.00
      O113          O  0.0391145  0.3837922  0.5319506    0.00000       Uiso       1.00
      H217          H  0.0195632  0.3315604  0.5276433    0.00000       Uiso       1.00
      H218          H  0.0187398  0.2899802  0.5274986    0.00000       Uiso       1.00
      H219          H  0.0944251  0.3364709  0.5463092    0.00000       Uiso       1.00
      C414          C  0.2509876  0.4040030  0.5339057    0.00000       Uiso       1.00
      C415          C  0.2279931  0.4045175  0.5332579    0.00000       Uiso       1.00
      C416          C  0.2290152  0.4270740  0.5303315    0.00000       Uiso       1.00
      C417          C  0.2054674  0.4276676  0.5307955    0.00000       Uiso       1.00
      C418          C  0.1798883  0.4063908  0.5357758    0.00000       Uiso       1.00
      C419          C  0.1791989  0.3841503  0.5392882    0.00000       Uiso       1.00
      C420          C  0.2032154  0.3817957  0.5360717    0.00000       Uiso       1.00
      O114          O  0.2765801  0.4246997  0.5319059    0.00000       Uiso       1.00
      H220          H  0.2482256  0.4442272  0.5275699    0.00000       Uiso       1.00
      H221          H  0.2076147  0.4450659  0.5274367    0.00000       Uiso       1.00
      H222          H  0.1596066  0.3693372  0.5461801    0.00000       Uiso       1.00
        B7          B  0.2914650  0.4130629  0.5345107    0.00000       Uiso       1.00
        B8          B  0.0507637  0.4129131  0.5345315    0.00000       Uiso       1.00
        B9          B  0.0509244  0.1723650  0.5345027    0.00000       Uiso       1.00
      C421          C  0.5374395  0.4050358  0.2498886    0.00000       Uiso       1.00
      C422          C  0.5388540  0.4062779  0.2262493    0.00000       Uiso       1.00
      C423          C  0.5416028  0.4307988  0.2254981    0.00000       Uiso       1.00
      C424          C  0.5415908  0.4312896  0.2021345    0.00000       Uiso       1.00
      C425          C  0.5372631  0.4068669  0.1795360    0.00000       Uiso       1.00
      C426          C  0.5341169  0.3822918  0.1809104    0.00000       Uiso       1.00
      C427          C  0.5368222  0.3819155  0.2029986    0.00000       Uiso       1.00
      O115          O  0.5380323  0.4266511  0.2746769    0.00000       Uiso       1.00
      H223          H  0.5437875  0.4496250  0.2431432    0.00000       Uiso       1.00
      H224          H  0.5446992  0.4509250  0.2022355    0.00000       Uiso       1.00
      H225          H  0.5277781  0.3629607  0.1655515    0.00000       Uiso       1.00
      C428          C  0.5375119  0.2139873  0.0815142    0.00000       Uiso       1.00
      C429          C  0.5389426  0.2376342  0.1049753    0.00000       Uiso       1.00
      C430          C  0.5416772  0.2383860  0.1275075    0.00000       Uiso       1.00
      C431          C  0.5416568  0.2617499  0.1513750    0.00000       Uiso       1.00
      C432          C  0.5373276  0.2843455  0.1538749    0.00000       Uiso       1.00
      C433          C  0.5342093  0.2829730  0.1310553    0.00000       Uiso       1.00
      C434          C  0.5369263  0.2608863  0.1058847    0.00000       Uiso       1.00
      O116          O  0.5380672  0.1891881  0.0777680    0.00000       Uiso       1.00
      H226          H  0.5438435  0.2207388  0.1265185    0.00000       Uiso       1.00
      H227          H  0.5447510  0.2616443  0.1678069    0.00000       Uiso       1.00
      H228          H  0.5278727  0.2983232  0.1334060    0.00000       Uiso       1.00
      C435          C  0.5374892  0.3823288  0.0588138    0.00000       Uiso       1.00
      C436          C  0.5389409  0.3588789  0.0575629    0.00000       Uiso       1.00
      C437          C  0.5417142  0.3363681  0.0330349    0.00000       Uiso       1.00
      C438          C  0.5417279  0.3125076  0.0325335    0.00000       Uiso       1.00
      C439          C  0.5374022  0.3100006  0.0569539    0.00000       Uiso       1.00
      C440          C  0.5342463  0.3328012  0.0815351    0.00000       Uiso       1.00
      C441          C  0.5369169  0.3579623  0.0819220    0.00000       Uiso       1.00
      O117          O  0.5380775  0.3860867  0.0371972    0.00000       Uiso       1.00
      H229          H  0.5438840  0.3373767  0.0142167    0.00000       Uiso       1.00
      H230          H  0.5448425  0.2960853  0.0128951    0.00000       Uiso       1.00
      H231          H  0.5279171  0.3304366  0.1008643    0.00000       Uiso       1.00
      C442          C  0.5339132  0.4040232  0.0829608    0.00000       Uiso       1.00
      C443          C  0.5332577  0.4045414  0.1071241    0.00000       Uiso       1.00
      C444          C  0.5302637  0.4270703  0.1316029    0.00000       Uiso       1.00
      C445          C  0.5307051  0.4276570  0.1552893    0.00000       Uiso       1.00
      C446          C  0.5357460  0.4064154  0.1545965    0.00000       Uiso       1.00
      C447          C  0.5393338  0.3842096  0.1295179    0.00000       Uiso       1.00
      C448          C  0.5361248  0.3818446  0.1063549    0.00000       Uiso       1.00
      O118          O  0.5318749  0.4246990  0.0800677    0.00000       Uiso       1.00
      H232          H  0.5274715  0.4442075  0.1323165    0.00000       Uiso       1.00
      H233          H  0.5272869  0.4450217  0.1739180    0.00000       Uiso       1.00
      H234          H  0.5462599  0.3694291  0.1274133    0.00000       Uiso       1.00
      C449          C  0.5339834  0.2128807  0.0597985    0.00000       Uiso       1.00
      C450          C  0.5333542  0.2358805  0.0592726    0.00000       Uiso       1.00
      C451          C  0.5304198  0.2348599  0.0367202    0.00000       Uiso       1.00
      C452          C  0.5308801  0.2584093  0.0361326    0.00000       Uiso       1.00
      C453          C  0.5358751  0.2839875  0.0574017    0.00000       Uiso       1.00
      C454          C  0.5394072  0.2846782  0.0796286    0.00000       Uiso       1.00
      C455          C  0.5361838  0.2606621  0.0819870    0.00000       Uiso       1.00
      O119          O  0.5319532  0.1872769  0.0391191    0.00000       Uiso       1.00
      H235          H  0.5276470  0.2156513  0.0195689    0.00000       Uiso       1.00
      H236          H  0.5275034  0.2562645  0.0187465    0.00000       Uiso       1.00
      H237          H  0.5463133  0.3042690  0.0944312    0.00000       Uiso       1.00
      C456          C  0.5339078  0.3808939  0.2509918    0.00000       Uiso       1.00
      C457          C  0.5332599  0.3567371  0.2279973    0.00000       Uiso       1.00
      C458          C  0.5303329  0.3322757  0.2290187    0.00000       Uiso       1.00
      C459          C  0.5307969  0.3085982  0.2054709    0.00000       Uiso       1.00
      C460          C  0.5357779  0.3092770  0.1798925    0.00000       Uiso       1.00
      C461          C  0.5392908  0.3343410  0.1792037    0.00000       Uiso       1.00
      C462          C  0.5360743  0.3574955  0.2032202    0.00000       Uiso       1.00
      O120          O  0.5319074  0.3837894  0.2765838    0.00000       Uiso       1.00
      H238          H  0.5275709  0.3315707  0.2482286    0.00000       Uiso       1.00
      H239          H  0.5274376  0.2899879  0.2076177    0.00000       Uiso       1.00
      H240          H  0.5461834  0.3364542  0.1596119    0.00000       Uiso       1.00
       B10          B  0.5345125  0.4129161  0.2914690    0.00000       Uiso       1.00
       B11          B  0.5345334  0.1723856  0.0507676    0.00000       Uiso       1.00
       B12          B  0.5345105  0.4130715  0.0509342    0.00000       Uiso       1.00
       B13          B  0.9993532  0.7091709  0.5868276    0.00000       Uiso       1.00
       B14          B  0.9993553  0.8770123  0.5868297    0.00000       Uiso       1.00
       B15          B  0.9993532  0.8770102  0.7546670    0.00000       Uiso       1.00
      C463          C  0.0012207  0.7976145  0.6180243    0.00000       Uiso       1.00
      C464          C  0.0007370  0.7500392  0.5951273    0.00000       Uiso       1.00
      H241          H  0.0011296  0.7712157  0.5752432    0.00000       Uiso       1.00
      O121          O  0.9999080  0.7249856  0.5738803    0.00000       Uiso       1.00
      C465          C  0.0010280  0.7731491  0.5944380    0.00000       Uiso       1.00
      C466          C  0.0012209  0.8458151  0.6422094    0.00000       Uiso       1.00
      C467          C  0.0007381  0.8687124  0.6180151    0.00000       Uiso       1.00
      H242          H  0.0011300  0.8885968  0.6586833    0.00000       Uiso       1.00
      O122          O  0.9999095  0.8899597  0.6150371    0.00000       Uiso       1.00
      C468          C  0.0010286  0.8694018  0.6415234    0.00000       Uiso       1.00
      C469          C  0.0012204  0.8216298  0.6662245    0.00000       Uiso       1.00
      C470          C  0.0007367  0.8458244  0.7137992    0.00000       Uiso       1.00
      H243          H  0.0011286  0.8051557  0.6926229    0.00000       Uiso       1.00
      O123          O  0.9999075  0.8488024  0.7388524    0.00000       Uiso       1.00
      C471          C  0.0010274  0.8223158  0.6906895    0.00000       Uiso       1.00
      C472          C  0.0012210  0.8216304  0.6180246    0.00000       Uiso       1.00
      C473          C  0.0007381  0.8458259  0.5951285    0.00000       Uiso       1.00
      O124          O  0.9999095  0.8488045  0.5738819    0.00000       Uiso       1.00
      H244          H  0.0011300  0.8051572  0.5752437    0.00000       Uiso       1.00
      C474          C  0.0010286  0.8223170  0.5944386    0.00000       Uiso       1.00
      C475          C  0.0012204  0.7976141  0.6422088    0.00000       Uiso       1.00
      C476          C  0.0007367  0.7500389  0.6180136    0.00000       Uiso       1.00
      H245          H  0.0011286  0.7712146  0.6586818    0.00000       Uiso       1.00
      O125          O  0.9999076  0.7249851  0.6150351    0.00000       Uiso       1.00
      C477          C  0.0010274  0.7731485  0.6415222    0.00000       Uiso       1.00
      C478          C  0.0012207  0.8458148  0.6662247    0.00000       Uiso       1.00
      C479          C  0.0007369  0.8687112  0.7137995    0.00000       Uiso       1.00
      H246          H  0.0011296  0.8885964  0.6926240    0.00000       Uiso       1.00
      O126          O  0.9999080  0.8899581  0.7388530    0.00000       Uiso       1.00
      C480          C  0.0010279  0.8694011  0.6906900    0.00000       Uiso       1.00
      C481          C  0.0815515  0.9264043  0.2498951    0.00000       Uiso       1.00
      C482          C  0.1050190  0.9249904  0.2262558    0.00000       Uiso       1.00
      C483          C  0.1275426  0.9222419  0.2255042    0.00000       Uiso       1.00
      C484          C  0.1514096  0.9222544  0.2021406    0.00000       Uiso       1.00
      C485          C  0.1539134  0.9265826  0.1795425    0.00000       Uiso       1.00
      C486          C  0.1311098  0.9297284  0.1809172    0.00000       Uiso       1.00
      C487          C  0.1059394  0.9270226  0.2030054    0.00000       Uiso       1.00
      O127          O  0.0777855  0.9258112  0.2746831    0.00000       Uiso       1.00
      H247          H  0.1265388  0.9200570  0.2431491    0.00000       Uiso       1.00
      H248          H  0.1678357  0.9191463  0.2022414    0.00000       Uiso       1.00
      H249          H  0.1334765  0.9360675  0.1655587    0.00000       Uiso       1.00
      C488          C  0.0588067  0.9263338  0.0815231    0.00000       Uiso       1.00
      C489          C  0.0575615  0.9249029  0.1049839    0.00000       Uiso       1.00
      C490          C  0.0330461  0.9221677  0.1275160    0.00000       Uiso       1.00
      C491          C  0.0325625  0.9221878  0.1513833    0.00000       Uiso       1.00
      C492          C  0.0569876  0.9265171  0.1538830    0.00000       Uiso       1.00
      C493          C  0.0815536  0.9296361  0.1310633    0.00000       Uiso       1.00
      C494          C  0.0819209  0.9269194  0.1058930    0.00000       Uiso       1.00
      O128          O  0.0371983  0.9257784  0.0777772    0.00000       Uiso       1.00
      H250          H  0.0142213  0.9200012  0.1265273    0.00000       Uiso       1.00
      H251          H  0.0129303  0.9190931  0.1678151    0.00000       Uiso       1.00
      H252          H  0.1008899  0.9359728  0.1334139    0.00000       Uiso       1.00
      C495          C  0.2498739  0.9263591  0.0588206    0.00000       Uiso       1.00
      C496          C  0.2262230  0.9249071  0.0575700    0.00000       Uiso       1.00
      C497          C  0.2254671  0.9221342  0.0330423    0.00000       Uiso       1.00
      C498          C  0.2020940  0.9221202  0.0325412    0.00000       Uiso       1.00
      C499          C  0.1794918  0.9264454  0.0569616    0.00000       Uiso       1.00
      C500          C  0.1808668  0.9296008  0.0815425    0.00000       Uiso       1.00
      C501          C  0.2029707  0.9269306  0.0819291    0.00000       Uiso       1.00
      O129          O  0.2746608  0.9257714  0.0372039    0.00000       Uiso       1.00
      H253          H  0.2431245  0.9199648  0.0142240    0.00000       Uiso       1.00
      H254          H  0.2021957  0.9190058  0.0129029    0.00000       Uiso       1.00
      H255          H  0.1655017  0.9359297  0.1008719    0.00000       Uiso       1.00
      C502          C  0.2509971  0.9299349  0.0829673    0.00000       Uiso       1.00
      C503          C  0.2280069  0.9305897  0.1071307    0.00000       Uiso       1.00
      C504          C  0.2290507  0.9335834  0.1316092    0.00000       Uiso       1.00
      C505          C  0.2055091  0.9331415  0.1552956    0.00000       Uiso       1.00
      C506          C  0.1799190  0.9281003  0.1546030    0.00000       Uiso       1.00
      C507          C  0.1792043  0.9245128  0.1295247    0.00000       Uiso       1.00
      C508          C  0.2032119  0.9277224  0.1063617    0.00000       Uiso       1.00
      O130          O  0.2766046  0.9319735  0.0800740    0.00000       Uiso       1.00
      H256          H  0.2482667  0.9363759  0.1323226    0.00000       Uiso       1.00
      H257          H  0.2076630  0.9365594  0.1739242    0.00000       Uiso       1.00
      H258          H  0.1596022  0.9175865  0.1274202    0.00000       Uiso       1.00
      C509          C  0.0829448  0.9298629  0.0598074    0.00000       Uiso       1.00
      C510          C  0.1071002  0.9304925  0.0592812    0.00000       Uiso       1.00
      C511          C  0.1315669  0.9334275  0.0367289    0.00000       Uiso       1.00
      C512          C  0.1552438  0.9329674  0.0361410    0.00000       Uiso       1.00
      C513          C  0.1545577  0.9279722  0.0574098    0.00000       Uiso       1.00
      C514          C  0.1294889  0.9244395  0.0796366    0.00000       Uiso       1.00
      C515          C  0.1063374  0.9276625  0.0819953    0.00000       Uiso       1.00
      O131          O  0.0800511  0.9318935  0.0391284    0.00000       Uiso       1.00
      H259          H  0.1322825  0.9362004  0.0195779    0.00000       Uiso       1.00
      H260          H  0.1738623  0.9363445  0.0187550    0.00000       Uiso       1.00
      H261          H  0.1273708  0.9175332  0.0944389    0.00000       Uiso       1.00
      C516          C  0.0598378  0.9299358  0.2509987    0.00000       Uiso       1.00
      C517          C  0.0593237  0.9305840  0.2280045    0.00000       Uiso       1.00
      C518          C  0.0367675  0.9335107  0.2290262    0.00000       Uiso       1.00
      C519          C  0.0361742  0.9330470  0.2054787    0.00000       Uiso       1.00
      C520          C  0.0574510  0.9280667  0.1799002    0.00000       Uiso       1.00
      C521          C  0.0796911  0.9245539  0.1792111    0.00000       Uiso       1.00
      C522          C  0.0820454  0.9277701  0.2032273    0.00000       Uiso       1.00
      O132          O  0.0391412  0.9319356  0.2765907    0.00000       Uiso       1.00
      H262          H  0.0196143  0.9362723  0.2482362    0.00000       Uiso       1.00
      H263          H  0.0187761  0.9364060  0.2076258    0.00000       Uiso       1.00
      H264          H  0.0945041  0.9176618  0.1596191    0.00000       Uiso       1.00
       B16          B  0.0507776  0.9293305  0.2914755    0.00000       Uiso       1.00
       B17          B  0.0509303  0.9293126  0.0507770    0.00000       Uiso       1.00
       B18          B  0.2914755  0.9293385  0.0509407    0.00000       Uiso       1.00
       B19          B  0.7546626  0.8770071  0.9993517    0.00000       Uiso       1.00
       B20          B  0.5868232  0.8770071  0.9993517    0.00000       Uiso       1.00
       B21          B  0.5868212  0.7091657  0.9993496    0.00000       Uiso       1.00
      C523          C  0.6662191  0.8458107  0.0012175    0.00000       Uiso       1.00
      C524          C  0.7137943  0.8687077  0.0007344    0.00000       Uiso       1.00
      H265          H  0.6926185  0.8885925  0.0011268    0.00000       Uiso       1.00
      O133          O  0.7388484  0.8899549  0.9999062    0.00000       Uiso       1.00
      C525          C  0.6906846  0.8693973  0.0010251    0.00000       Uiso       1.00
      C526          C  0.6180184  0.8216257  0.0012172    0.00000       Uiso       1.00
      C527          C  0.5951220  0.8458209  0.0007341    0.00000       Uiso       1.00
      H266          H  0.5752369  0.8051519  0.0011257    0.00000       Uiso       1.00
      O134          O  0.5738752  0.8487991  0.9999058    0.00000       Uiso       1.00
      C528          C  0.5944320  0.8223119  0.0010245    0.00000       Uiso       1.00
      C529          C  0.6422028  0.7976097  0.0012169    0.00000       Uiso       1.00
      C530          C  0.6180074  0.7500342  0.0007329    0.00000       Uiso       1.00
      H267          H  0.6586761  0.7712104  0.0011253    0.00000       Uiso       1.00
      O135          O  0.6150290  0.7249802  0.9999042    0.00000       Uiso       1.00
      C531          C  0.6415163  0.7731441  0.0010239    0.00000       Uiso       1.00
      C532          C  0.6422033  0.8458107  0.0012175    0.00000       Uiso       1.00
      C533          C  0.6180088  0.8687077  0.0007344    0.00000       Uiso       1.00
      O136          O  0.6150310  0.8899549  0.9999062    0.00000       Uiso       1.00
      H268          H  0.6586775  0.8885925  0.0011268    0.00000       Uiso       1.00
      C534          C  0.6415174  0.8693973  0.0010251    0.00000       Uiso       1.00
      C535          C  0.6662188  0.8216257  0.0012172    0.00000       Uiso       1.00
      C536          C  0.7137941  0.8458209  0.0007341    0.00000       Uiso       1.00
      H269          H  0.6926175  0.8051519  0.0011257    0.00000       Uiso       1.00
      O137          O  0.7388479  0.8487991  0.9999058    0.00000       Uiso       1.00
      C537          C  0.6906840  0.8223119  0.0010245    0.00000       Uiso       1.00
      C538          C  0.6180181  0.7976097  0.0012169    0.00000       Uiso       1.00
      C539          C  0.5951208  0.7500342  0.0007329    0.00000       Uiso       1.00
      H270          H  0.5752364  0.7712104  0.0011253    0.00000       Uiso       1.00
      O138          O  0.5738738  0.7249802  0.9999042    0.00000       Uiso       1.00
      C540          C  0.5944315  0.7731441  0.0010239    0.00000       Uiso       1.00
      C541          C  0.2498772  0.4050254  0.0815358    0.00000       Uiso       1.00
      C542          C  0.2262373  0.4062669  0.1050028    0.00000       Uiso       1.00
      C543          C  0.2254858  0.4307876  0.1275264    0.00000       Uiso       1.00
      C544          C  0.2021216  0.4312778  0.1513928    0.00000       Uiso       1.00
      C545          C  0.1795228  0.4068547  0.1538960    0.00000       Uiso       1.00
      C546          C  0.1808975  0.3822800  0.1310923    0.00000       Uiso       1.00
      C547          C  0.2029863  0.3819042  0.1059225    0.00000       Uiso       1.00
      O139          O  0.2746658  0.4266411  0.0777704    0.00000       Uiso       1.00
      H271          H  0.2431311  0.4496140  0.1265231    0.00000       Uiso       1.00
      H272          H  0.2022225  0.4509130  0.1678191    0.00000       Uiso       1.00
      H273          H  0.1655384  0.3629486  0.1334585    0.00000       Uiso       1.00
      C548          C  0.0815011  0.2139751  0.0587868    0.00000       Uiso       1.00
      C549          C  0.1049625  0.2376223  0.0575422    0.00000       Uiso       1.00
      C550          C  0.1274952  0.2383747  0.0330275    0.00000       Uiso       1.00
      C551          C  0.1513631  0.2617389  0.0325444    0.00000       Uiso       1.00
      C552          C  0.1538627  0.2843342  0.0569695    0.00000       Uiso       1.00
      C553          C  0.1310424  0.2829611  0.0815349    0.00000       Uiso       1.00
      C554          C  0.1058716  0.2608742  0.0819016    0.00000       Uiso       1.00
      O140          O  0.0777551  0.1891761  0.0371783    0.00000       Uiso       1.00
      H274          H  0.1265065  0.2207277  0.0142026    0.00000       Uiso       1.00
      H275          H  0.1677954  0.2616337  0.0129127    0.00000       Uiso       1.00
      H276          H  0.1333929  0.2983111  0.1008711    0.00000       Uiso       1.00
      C555          C  0.0587980  0.3823139  0.2498536    0.00000       Uiso       1.00
      C556          C  0.0575474  0.3588643  0.2262026    0.00000       Uiso       1.00
      C557          C  0.0330192  0.3363532  0.2254462    0.00000       Uiso       1.00
      C558          C  0.0325181  0.3124930  0.2020731    0.00000       Uiso       1.00
      C559          C  0.0569390  0.3099866  0.1794714    0.00000       Uiso       1.00
      C560          C  0.0815204  0.3327875  0.1808470    0.00000       Uiso       1.00
      C561          C  0.0819071  0.3579483  0.2029509    0.00000       Uiso       1.00
      O141          O  0.0371808  0.3860712  0.2746399    0.00000       Uiso       1.00
      H277          H  0.0142005  0.3373613  0.2431032    0.00000       Uiso       1.00
      H278          H  0.0128794  0.2960704  0.2021744    0.00000       Uiso       1.00
      H279          H  0.1008501  0.3304233  0.1654822    0.00000       Uiso       1.00
      C562          C  0.0829452  0.4040085  0.2509773    0.00000       Uiso       1.00
      C563          C  0.1071091  0.4045274  0.2279877    0.00000       Uiso       1.00
      C564          C  0.1315882  0.4270566  0.2290320    0.00000       Uiso       1.00
      C565          C  0.1552752  0.4276439  0.2054909    0.00000       Uiso       1.00
      C566          C  0.1545827  0.4064026  0.1799010    0.00000       Uiso       1.00
      C567          C  0.1295038  0.3841965  0.1791858    0.00000       Uiso       1.00
      C568          C  0.1063403  0.3818309  0.2031926    0.00000       Uiso       1.00
      O142          O  0.0800518  0.4246840  0.2765847    0.00000       Uiso       1.00
      H280          H  0.1323015  0.4441935  0.2482480    0.00000       Uiso       1.00
      H281          H  0.1739041  0.4450087  0.2076453    0.00000       Uiso       1.00
      H282          H  0.1273995  0.3694162  0.1595837    0.00000       Uiso       1.00
      C569          C  0.0597848  0.2128679  0.0829243    0.00000       Uiso       1.00
      C570          C  0.0592586  0.2358674  0.1070797    0.00000       Uiso       1.00
      C571          C  0.0367056  0.2348462  0.1315458    0.00000       Uiso       1.00
      C572          C  0.0361178  0.2583953  0.1552227    0.00000       Uiso       1.00
      C573          C  0.0573871  0.2839738  0.1545372    0.00000       Uiso       1.00
      C574          C  0.0796145  0.2846651  0.1294691    0.00000       Uiso       1.00
      C575          C  0.0819733  0.2606493  0.1063176    0.00000       Uiso       1.00
      O143          O  0.0391052  0.1872639  0.0800300    0.00000       Uiso       1.00
      H283          H  0.0195542  0.2156374  0.1322609    0.00000       Uiso       1.00
      H284          H  0.0187313  0.2562501  0.1738407    0.00000       Uiso       1.00
      H285          H  0.0944174  0.3042561  0.1273515    0.00000       Uiso       1.00
      C576          C  0.2509806  0.3808838  0.0598221    0.00000       Uiso       1.00
      C577          C  0.2279859  0.3567267  0.0593073    0.00000       Uiso       1.00
      C578          C  0.2290076  0.3322656  0.0367511    0.00000       Uiso       1.00
      C579          C  0.2054596  0.3085878  0.0361572    0.00000       Uiso       1.00
      C580          C  0.1798805  0.3092660  0.0574335    0.00000       Uiso       1.00
      C581          C  0.1791914  0.3343297  0.0796737    0.00000       Uiso       1.00
      C582          C  0.2032082  0.3574846  0.0820286    0.00000       Uiso       1.00
      O144          O  0.2765732  0.3837799  0.0391260    0.00000       Uiso       1.00
      H286          H  0.2482179  0.3315611  0.0195983    0.00000       Uiso       1.00
      H287          H  0.2076066  0.2899778  0.0187591    0.00000       Uiso       1.00
      H288          H  0.1595992  0.3364426  0.0944864    0.00000       Uiso       1.00
       B22          B  0.2914584  0.4129067  0.0507629    0.00000       Uiso       1.00
       B23          B  0.0507542  0.1723731  0.0509097    0.00000       Uiso       1.00
       B24          B  0.0509178  0.4130560  0.2914549    0.00000       Uiso       1.00
