data_48
_audit_creation_date              0000-00-00
_audit_creation_method            'LanYouShi'
_symmetry_space_group_name_H-M    'P1'
_cell_length_a                    59.4054985
_cell_length_b                    59.4054985
_cell_length_c                    59.4054985
_cell_angle_alpha                 120.0000000
_cell_angle_beta                  120.0000000
_cell_angle_gamma                 60.0000000
loop_
_atom_site_label
_atom_site_type_symbol
_atom_site_fract_x
_atom_site_fract_y
_atom_site_fract_z
_atom_site_U_iso_or_equiv
_atom_site_adp_type
_atom_site_occupancy
        C1          C  0.3222807  0.5324060  0.4273767    0.00000       Uiso       1.00
        C2          C  0.3365975  0.5303811  0.4132425    0.00000       Uiso       1.00
        C3          C  0.3648457  0.5263041  0.4253112    0.00000       Uiso       1.00
        C4          C  0.3365975  0.5303811  0.4538028    0.00000       Uiso       1.00
        C5          C  0.3648457  0.5263041  0.4659053    0.00000       Uiso       1.00
        C6          C  0.3795986  0.5251682  0.4524167    0.00000       Uiso       1.00
        H1          H  0.3252306  0.5320557  0.3916999    0.00000       Uiso       1.00
        C7          C  0.5727186  0.5726924  0.4676631    0.00000       Uiso       1.00
        C8          C  0.5462926  0.5868266  0.4696880    0.00000       Uiso       1.00
        C9          C  0.5341901  0.5747579  0.4737650    0.00000       Uiso       1.00
       C10          C  0.5868528  0.5462663  0.4696880    0.00000       Uiso       1.00
       C11          C  0.5747842  0.5341638  0.4737650    0.00000       Uiso       1.00
       C12          C  0.5476786  0.5476524  0.4749009    0.00000       Uiso       1.00
        H2          H  0.5234433  0.3752317  0.4130058    0.00000       Uiso       1.00
        H3          H  0.5344423  0.6083692  0.4680134    0.00000       Uiso       1.00
       C13          C  0.5727186  0.5726923  0.6778145    0.00000       Uiso       1.00
       C14          C  0.5868528  0.5462664  0.6634979    0.00000       Uiso       1.00
       C15          C  0.5747842  0.5341638  0.6352496    0.00000       Uiso       1.00
       C16          C  0.5462926  0.5868266  0.6634979    0.00000       Uiso       1.00
       C17          C  0.5341901  0.5747579  0.6352496    0.00000       Uiso       1.00
       C18          C  0.5476786  0.5476524  0.6204967    0.00000       Uiso       1.00
        H4          H  0.3752579  0.5234171  0.4857358    0.00000       Uiso       1.00
        H5          H  0.5344423  0.6083692  0.6748647    0.00000       Uiso       1.00
       C19          C  0.5324323  0.3222545  0.4273767    0.00000       Uiso       1.00
       C20          C  0.5304073  0.3365713  0.4538028    0.00000       Uiso       1.00
       C21          C  0.5263304  0.3648195  0.4659053    0.00000       Uiso       1.00
       C22          C  0.5304073  0.3365713  0.4132425    0.00000       Uiso       1.00
       C23          C  0.5263304  0.3648195  0.4253112    0.00000       Uiso       1.00
       C24          C  0.5251945  0.3795723  0.4524167    0.00000       Uiso       1.00
        H6          H  0.5870895  0.5143333  0.6248374    0.00000       Uiso       1.00
        H7          H  0.5870895  0.5143333  0.4766520    0.00000       Uiso       1.00
       C25          C  0.5000376  0.5000114  0.5000576    0.00000       Uiso       1.00
        H8          H  0.5320819  0.3252044  0.4656531    0.00000       Uiso       1.00
        N1          N  0.3215414  0.5325992  0.4694992    0.00000       Uiso       1.00
        H9          H  0.3349196  0.5306945  0.4880745    0.00000       Uiso       1.00
       H10          H  0.3131489  0.5174667  0.4587281    0.00000       Uiso       1.00
        N2          N  0.3793993  0.5222688  0.4081115    0.00000       Uiso       1.00
       H11          H  0.3995675  0.5195656  0.4192421    0.00000       Uiso       1.00
       H12          H  0.3708343  0.5390561  0.4024982    0.00000       Uiso       1.00
        N3          N  0.5326254  0.3215151  0.3847080    0.00000       Uiso       1.00
       H13          H  0.5307208  0.3348933  0.3776062    0.00000       Uiso       1.00
       H14          H  0.5174929  0.3131227  0.3719541    0.00000       Uiso       1.00
        N4          N  0.5222950  0.3793730  0.4936232    0.00000       Uiso       1.00
       H15          H  0.5195919  0.3995413  0.4999577    0.00000       Uiso       1.00
       H16          H  0.5390823  0.3708081  0.5074588    0.00000       Uiso       1.00
        N5          N  0.6153873  0.5305699  0.4674699    0.00000       Uiso       1.00
       H17          H  0.6224892  0.5119945  0.4693746    0.00000       Uiso       1.00
       H18          H  0.6281412  0.5413410  0.4826024    0.00000       Uiso       1.00
        N6          N  0.5064722  0.5919576  0.4778003    0.00000       Uiso       1.00
       H19          H  0.5001376  0.5808270  0.4805034    0.00000       Uiso       1.00
       H20          H  0.4926365  0.5975708  0.4610130    0.00000       Uiso       1.00
        N7          N  0.6153873  0.5305699  0.6785540    0.00000       Uiso       1.00
       H21          H  0.6224892  0.5119945  0.6651758    0.00000       Uiso       1.00
       H22          H  0.6146064  0.5279024  0.6936291    0.00000       Uiso       1.00
        N8          N  0.5064722  0.5919576  0.6206961    0.00000       Uiso       1.00
       H23          H  0.5001376  0.5808269  0.6005278    0.00000       Uiso       1.00
       H24          H  0.5081125  0.6089948  0.6225944    0.00000       Uiso       1.00
       C26          C  0.4099381  0.5199972  0.4651708    0.00000       Uiso       1.00
       C27          C  0.4225526  0.5303429  0.4594956    0.00000       Uiso       1.00
       C28          C  0.4511251  0.5247918  0.4708596    0.00000       Uiso       1.00
       C29          C  0.4266732  0.5042211  0.4828336    0.00000       Uiso       1.00
       C30          C  0.4550396  0.4991972  0.4946532    0.00000       Uiso       1.00
       C31          C  0.4680156  0.5093688  0.4890648    0.00000       Uiso       1.00
       H25          H  0.4103312  0.5426441  0.4460575    0.00000       Uiso       1.00
       C32          C  0.5349259  0.5352377  0.4800728    0.00000       Uiso       1.00
       C33          C  0.5172692  0.5519409  0.4958545    0.00000       Uiso       1.00
       C34          C  0.5054459  0.5404194  0.5008760    0.00000       Uiso       1.00
       C35          C  0.5405965  0.5066029  0.4697223    0.00000       Uiso       1.00
       C36          C  0.5292329  0.4949462  0.4752747    0.00000       Uiso       1.00
       C37          C  0.5110306  0.5116836  0.4907009    0.00000       Uiso       1.00
       H26          H  0.4865420  0.4672375  0.4460991    0.00000       Uiso       1.00
       H27          H  0.5131344  0.5739666  0.5051787    0.00000       Uiso       1.00
       C38          C  0.5352635  0.5349000  0.5901572    0.00000       Uiso       1.00
       C39          C  0.5519670  0.5172390  0.5734220    0.00000       Uiso       1.00
       C40          C  0.5404451  0.5054171  0.5450556    0.00000       Uiso       1.00
       C41          C  0.5066279  0.5405750  0.5775425    0.00000       Uiso       1.00
       C42          C  0.4949715  0.5292106  0.5489702    0.00000       Uiso       1.00
       C43          C  0.5117092  0.5110047  0.5320795    0.00000       Uiso       1.00
       H28          H  0.4672644  0.4865166  0.5077482    0.00000       Uiso       1.00
       H29          H  0.4931080  0.5540103  0.5897623    0.00000       Uiso       1.00
       C44          C  0.5200229  0.4099118  0.4648320    0.00000       Uiso       1.00
       C45          C  0.5303696  0.4225263  0.4934674    0.00000       Uiso       1.00
       C46          C  0.5248178  0.4510986  0.5051239    0.00000       Uiso       1.00
       C47          C  0.5042441  0.4266469  0.4481287    0.00000       Uiso       1.00
       C48          C  0.4992216  0.4550132  0.4596504    0.00000       Uiso       1.00
       C49          C  0.5093947  0.4679891  0.4883861    0.00000       Uiso       1.00
       H30          H  0.5539960  0.4923192  0.5328310    0.00000       Uiso       1.00
       H31          H  0.5355424  0.4727408  0.4679341    0.00000       Uiso       1.00
       H32          H  0.5426739  0.4103062  0.5069868    0.00000       Uiso       1.00
        N9          N  0.4147132  0.4912041  0.4886179    0.00000       Uiso       1.00
       H33          H  0.4298238  0.4807699  0.5016786    0.00000       Uiso       1.00
       H34          H  0.4061724  0.4780774  0.4707802    0.00000       Uiso       1.00
       N10          N  0.4630964  0.5350569  0.4620242    0.00000       Uiso       1.00
       H35          H  0.4837202  0.5297925  0.4715847    0.00000       Uiso       1.00
       H36          H  0.4546430  0.5557789  0.4671630    0.00000       Uiso       1.00
       N11          N  0.4912267  0.4146833  0.4173681    0.00000       Uiso       1.00
       H37          H  0.4807898  0.4297923  0.4089812    0.00000       Uiso       1.00
       H38          H  0.4781024  0.4061413  0.4135412    0.00000       Uiso       1.00
       N12          N  0.5350851  0.4630686  0.5361958    0.00000       Uiso       1.00
       H39          H  0.5298206  0.4836925  0.5419953    0.00000       Uiso       1.00
       H40          H  0.5558072  0.4546151  0.5433241    0.00000       Uiso       1.00
       N13          N  0.5593335  0.4877454  0.4525519    0.00000       Uiso       1.00
       H41          H  0.5610352  0.4680117  0.4469415    0.00000       Uiso       1.00
       H42          H  0.5781515  0.4898372  0.4637150    0.00000       Uiso       1.00
       N14          N  0.4871959  0.5593047  0.5185471    0.00000       Uiso       1.00
       H43          H  0.4801906  0.5480955  0.5203367    0.00000       Uiso       1.00
       H44          H  0.4710644  0.5732617  0.5096908    0.00000       Uiso       1.00
       N15          N  0.5827282  0.5114561  0.5853859    0.00000       Uiso       1.00
       H45          H  0.5911149  0.4983968  0.5702769    0.00000       Uiso       1.00
       H46          H  0.5910747  0.5028279  0.5999752    0.00000       Uiso       1.00
       N16          N  0.4638998  0.5380426  0.5369998    0.00000       Uiso       1.00
       H47          H  0.4581007  0.5284824  0.5163760    0.00000       Uiso       1.00
       H48          H  0.4560523  0.5586652  0.5411932    0.00000       Uiso       1.00
       C50          C  0.5324323  0.0365270  0.1416493    0.00000       Uiso       1.00
       C51          C  0.5304073  0.0506613  0.1273325    0.00000       Uiso       1.00
       C52          C  0.5263304  0.0385926  0.0990843    0.00000       Uiso       1.00
       C53          C  0.5304073  0.0101010  0.1273325    0.00000       Uiso       1.00
       C54          C  0.5263304  0.9979979  0.0990843    0.00000       Uiso       1.00
       C55          C  0.5251945  0.0114870  0.0843314    0.00000       Uiso       1.00
       H49          H  0.5320819  0.0722039  0.1386994    0.00000       Uiso       1.00
       C56          C  0.5727186  0.9962400  0.8912107    0.00000       Uiso       1.00
       C57          C  0.5868528  0.9942150  0.9176368    0.00000       Uiso       1.00
       C58          C  0.5747842  0.9901381  0.9297392    0.00000       Uiso       1.00
       C59          C  0.5462926  0.9942151  0.8770765    0.00000       Uiso       1.00
       C60          C  0.5341901  0.9901381  0.8891452    0.00000       Uiso       1.00
       C61          C  0.5476786  0.9890022  0.9162506    0.00000       Uiso       1.00
       H50          H  0.3752579  0.0508979  0.9404861    0.00000       Uiso       1.00
       H51          H  0.6083955  0.9958897  0.9294870    0.00000       Uiso       1.00
       C62          C  0.5727186  0.7860885  0.8912107    0.00000       Uiso       1.00
       C63          C  0.5462926  0.8004053  0.8770765    0.00000       Uiso       1.00
       C64          C  0.5341901  0.8286535  0.8891452    0.00000       Uiso       1.00
       C65          C  0.5868528  0.8004053  0.9176368    0.00000       Uiso       1.00
       C66          C  0.5747842  0.8286535  0.9297392    0.00000       Uiso       1.00
       C67          C  0.5476786  0.8434063  0.9162506    0.00000       Uiso       1.00
       H52          H  0.5234433  0.9781673  0.0886721    0.00000       Uiso       1.00
       H53          H  0.6083954  0.7890384  0.9294870    0.00000       Uiso       1.00
       C68          C  0.3222808  0.0365271  0.9314971    0.00000       Uiso       1.00
       C69          C  0.3365975  0.0101010  0.9335220    0.00000       Uiso       1.00
       C70          C  0.3648457  0.9979979  0.9375990    0.00000       Uiso       1.00
       C71          C  0.3365975  0.0506613  0.9335220    0.00000       Uiso       1.00
       C72          C  0.3648457  0.0385926  0.9375990    0.00000       Uiso       1.00
       C73          C  0.3795986  0.0114870  0.9387348    0.00000       Uiso       1.00
       H54          H  0.5143595  0.8390657  0.8768398    0.00000       Uiso       1.00
       H55          H  0.5143596  0.9872511  0.8768398    0.00000       Uiso       1.00
       C74          C  0.5000376  0.9638454  0.9638918    0.00000       Uiso       1.00
       H56          H  0.3252306  0.9982500  0.9318474    0.00000       Uiso       1.00
       N17          N  0.5326254  0.9944038  0.1423886    0.00000       Uiso       1.00
       H57          H  0.5307208  0.9758286  0.1290104    0.00000       Uiso       1.00
       H58          H  0.5174929  0.0051757  0.1507811    0.00000       Uiso       1.00
       N18          N  0.5222950  0.0557923  0.0845308    0.00000       Uiso       1.00
       H59          H  0.5195919  0.0446616  0.0643625    0.00000       Uiso       1.00
       H60          H  0.5390823  0.0614055  0.0930957    0.00000       Uiso       1.00
       N19          N  0.3215414  0.0791958  0.9313039    0.00000       Uiso       1.00
       H61          H  0.3349196  0.0862976  0.9332086    0.00000       Uiso       1.00
       H62          H  0.3131489  0.0919496  0.9464365    0.00000       Uiso       1.00
       N20          N  0.3793993  0.9702799  0.9416343    0.00000       Uiso       1.00
       H63          H  0.3995675  0.9639454  0.9443374    0.00000       Uiso       1.00
       H64          H  0.3708344  0.9564442  0.9248469    0.00000       Uiso       1.00
       N21          N  0.5305961  0.9964332  0.8485420    0.00000       Uiso       1.00
       H65          H  0.5120208  0.9945285  0.8414402    0.00000       Uiso       1.00
       H66          H  0.5413673  0.9813007  0.8357881    0.00000       Uiso       1.00
       N22          N  0.5919838  0.9861028  0.9574572    0.00000       Uiso       1.00
       H67          H  0.5808532  0.9833997  0.9637917    0.00000       Uiso       1.00
       H68          H  0.5975971  0.0028908  0.9712928    0.00000       Uiso       1.00
       N23          N  0.5305961  0.7853491  0.8485420    0.00000       Uiso       1.00
       H69          H  0.5120208  0.7987273  0.8414402    0.00000       Uiso       1.00
       H70          H  0.5279286  0.7702740  0.8493229    0.00000       Uiso       1.00
       N24          N  0.5919838  0.8432070  0.9574572    0.00000       Uiso       1.00
       H71          H  0.5808532  0.8633753  0.9637917    0.00000       Uiso       1.00
       H72          H  0.6090210  0.8413087  0.9558168    0.00000       Uiso       1.00
       C75          C  0.5200235  0.9987323  0.0539919    0.00000       Uiso       1.00
       C76          C  0.5303692  0.0044081  0.0413774    0.00000       Uiso       1.00
       C77          C  0.5248180  0.9930435  0.0128049    0.00000       Uiso       1.00
       C78          C  0.5042474  0.9810695  0.0372568    0.00000       Uiso       1.00
       C79          C  0.4992235  0.9692499  0.0088905    0.00000       Uiso       1.00
       C80          C  0.5093951  0.9748383  0.9959137    0.00000       Uiso       1.00
       H73          H  0.5426704  0.0178462  0.0535988    0.00000       Uiso       1.00
       C81          C  0.5352640  0.9838303  0.9290034    0.00000       Uiso       1.00
       C82          C  0.5519671  0.9680486  0.9466602    0.00000       Uiso       1.00
       C83          C  0.5404457  0.9630271  0.9584834    0.00000       Uiso       1.00
       C84          C  0.5066292  0.9941807  0.9233329    0.00000       Uiso       1.00
       C85          C  0.4949724  0.9886284  0.9346964    0.00000       Uiso       1.00
       C86          C  0.5117098  0.9732022  0.9528987    0.00000       Uiso       1.00
       H74          H  0.4672637  0.0178047  0.9773874    0.00000       Uiso       1.00
       H75          H  0.5739928  0.9587244  0.9507949    0.00000       Uiso       1.00
       C87          C  0.5349262  0.8737459  0.9286658    0.00000       Uiso       1.00
       C88          C  0.5172653  0.8904811  0.9119623    0.00000       Uiso       1.00
       C89          C  0.5054434  0.9188475  0.9234843    0.00000       Uiso       1.00
       C90          C  0.5406013  0.8863606  0.9573014    0.00000       Uiso       1.00
       C91          C  0.5292368  0.9149329  0.9689578    0.00000       Uiso       1.00
       C92          C  0.5110310  0.9318237  0.9522202    0.00000       Uiso       1.00
       H76          H  0.4865429  0.9561548  0.9966650    0.00000       Uiso       1.00
       H77          H  0.5540366  0.8741409  0.9708214    0.00000       Uiso       1.00
       C93          C  0.4099381  0.9990711  0.9439065    0.00000       Uiso       1.00
       C94          C  0.4225526  0.9704357  0.9335597    0.00000       Uiso       1.00
       C95          C  0.4511249  0.9587792  0.9391115    0.00000       Uiso       1.00
       C96          C  0.4266732  0.0157751  0.9596851    0.00000       Uiso       1.00
       C97          C  0.4550394  0.0042534  0.9647077    0.00000       Uiso       1.00
       C98          C  0.4680153  0.9755170  0.9545346    0.00000       Uiso       1.00
       H78          H  0.4923455  0.9310721  0.9099334    0.00000       Uiso       1.00
       H79          H  0.4727671  0.9959691  0.9283870    0.00000       Uiso       1.00
       H80          H  0.4103325  0.9569163  0.9212554    0.00000       Uiso       1.00
       N25          N  0.4912303  0.9752852  0.0492168    0.00000       Uiso       1.00
       H81          H  0.4807961  0.9622245  0.0341062    0.00000       Uiso       1.00
       H82          H  0.4781037  0.9931229  0.0577576    0.00000       Uiso       1.00
       N26          N  0.5350831  0.0018796  0.0008336    0.00000       Uiso       1.00
       H83          H  0.5298187  0.9923183  0.9802091    0.00000       Uiso       1.00
       H84          H  0.5558051  0.9967401  0.0092870    0.00000       Uiso       1.00
       N27          N  0.4147096  0.0465357  0.9727026    0.00000       Uiso       1.00
       H85          H  0.4298185  0.0549226  0.9831396    0.00000       Uiso       1.00
       H86          H  0.4061675  0.0503625  0.9858269    0.00000       Uiso       1.00
       N28          N  0.4630949  0.9277074  0.9288443    0.00000       Uiso       1.00
       H87          H  0.4837187  0.9219077  0.9341088    0.00000       Uiso       1.00
       H88          H  0.4546413  0.9205791  0.9081221    0.00000       Uiso       1.00
       N29          N  0.4877716  0.0113518  0.9045959    0.00000       Uiso       1.00
       H89          H  0.4680380  0.0169623  0.9028941    0.00000       Uiso       1.00
       H90          H  0.4898635  0.0001887  0.8857778    0.00000       Uiso       1.00
       N30          N  0.5593309  0.9453560  0.9767334    0.00000       Uiso       1.00
       H91          H  0.5481218  0.9435664  0.9837387    0.00000       Uiso       1.00
       H92          H  0.5732880  0.9542124  0.9928650    0.00000       Uiso       1.00
       N31          N  0.5114823  0.8785172  0.8812011    0.00000       Uiso       1.00
       H93          H  0.4984230  0.8936263  0.8728145    0.00000       Uiso       1.00
       H94          H  0.5028541  0.8639279  0.8728547    0.00000       Uiso       1.00
       N32          N  0.5380688  0.9269033  0.0000302    0.00000       Uiso       1.00
       H95          H  0.5285087  0.9475271  0.0058293    0.00000       Uiso       1.00
       H96          H  0.5586914  0.9227098  0.0078777    0.00000       Uiso       1.00
       C99          C  0.0365533  0.3222545  0.9314971    0.00000       Uiso       1.00
      C100          C  0.0506875  0.3365713  0.9335220    0.00000       Uiso       1.00
      C101          C  0.0386188  0.3648195  0.9375990    0.00000       Uiso       1.00
      C102          C  0.0101272  0.3365713  0.9335220    0.00000       Uiso       1.00
      C103          C  0.9980240  0.3648195  0.9375990    0.00000       Uiso       1.00
      C104          C  0.0115133  0.3795723  0.9387348    0.00000       Uiso       1.00
       H97          H  0.0722301  0.3252044  0.9318474    0.00000       Uiso       1.00
      C105          C  0.9962662  0.5726924  0.8912107    0.00000       Uiso       1.00
      C106          C  0.9942413  0.5462664  0.8770765    0.00000       Uiso       1.00
      C107          C  0.9901643  0.5341638  0.8891452    0.00000       Uiso       1.00
      C108          C  0.9942413  0.5868266  0.9176368    0.00000       Uiso       1.00
      C109          C  0.9901643  0.5747579  0.9297392    0.00000       Uiso       1.00
      C110          C  0.9890285  0.5476524  0.9162506    0.00000       Uiso       1.00
       H98          H  0.0509241  0.5234171  0.0886721    0.00000       Uiso       1.00
       H99          H  0.9959159  0.5344160  0.8555339    0.00000       Uiso       1.00
      C111          C  0.7861147  0.5726924  0.8912107    0.00000       Uiso       1.00
      C112          C  0.8004315  0.5868266  0.9176368    0.00000       Uiso       1.00
      C113          C  0.8286797  0.5747579  0.9297392    0.00000       Uiso       1.00
      C114          C  0.8004315  0.5462664  0.8770765    0.00000       Uiso       1.00
      C115          C  0.8286797  0.5341638  0.8891452    0.00000       Uiso       1.00
      C116          C  0.8434325  0.5476524  0.9162506    0.00000       Uiso       1.00
      H100          H  0.9781936  0.3752317  0.9404861    0.00000       Uiso       1.00
      H101          H  0.7890646  0.5344160  0.8555339    0.00000       Uiso       1.00
      C117          C  0.0365533  0.5324060  0.1416493    0.00000       Uiso       1.00
      C118          C  0.0101273  0.5303811  0.1273325    0.00000       Uiso       1.00
      C119          C  0.9980241  0.5263041  0.0990843    0.00000       Uiso       1.00
      C120          C  0.0506875  0.5303811  0.1273325    0.00000       Uiso       1.00
      C121          C  0.0386188  0.5263041  0.0990843    0.00000       Uiso       1.00
      C122          C  0.0115133  0.5251682  0.0843314    0.00000       Uiso       1.00
      H102          H  0.8390919  0.5870633  0.9495698    0.00000       Uiso       1.00
      H103          H  0.9872773  0.5870633  0.9495698    0.00000       Uiso       1.00
      C123          C  0.9638717  0.5000113  0.9638917    0.00000       Uiso       1.00
      H104          H  0.9982762  0.5320557  0.1386994    0.00000       Uiso       1.00
       N33          N  0.9944301  0.3215151  0.9313039    0.00000       Uiso       1.00
      H105          H  0.9758548  0.3348933  0.9332086    0.00000       Uiso       1.00
      H106          H  0.0052019  0.3131227  0.9464365    0.00000       Uiso       1.00
       N34          N  0.0558185  0.3793730  0.9416343    0.00000       Uiso       1.00
      H107          H  0.0446879  0.3995413  0.9443374    0.00000       Uiso       1.00
      H108          H  0.0614318  0.3708081  0.9248469    0.00000       Uiso       1.00
       N35          N  0.0792220  0.5325992  0.1423886    0.00000       Uiso       1.00
      H109          H  0.0863238  0.5306945  0.1290104    0.00000       Uiso       1.00
      H110          H  0.0919759  0.5174667  0.1507811    0.00000       Uiso       1.00
       N36          N  0.9703061  0.5222688  0.0845308    0.00000       Uiso       1.00
      H111          H  0.9639717  0.5195656  0.0643625    0.00000       Uiso       1.00
      H112          H  0.9564705  0.5390561  0.0930957    0.00000       Uiso       1.00
       N37          N  0.9964594  0.6153611  0.9333332    0.00000       Uiso       1.00
      H113          H  0.9945548  0.6224629  0.9519085    0.00000       Uiso       1.00
      H114          H  0.9813269  0.6281150  0.9225621    0.00000       Uiso       1.00
       N38          N  0.9861290  0.5064459  0.8719455    0.00000       Uiso       1.00
      H115          H  0.9834259  0.5001114  0.8830761    0.00000       Uiso       1.00
      H116          H  0.0029170  0.4926102  0.8663322    0.00000       Uiso       1.00
       N39          N  0.7853754  0.6153611  0.9333332    0.00000       Uiso       1.00
      H117          H  0.7987536  0.6224629  0.9519085    0.00000       Uiso       1.00
      H118          H  0.7703002  0.6145802  0.9360007    0.00000       Uiso       1.00
       N40          N  0.8432332  0.5064459  0.8719455    0.00000       Uiso       1.00
      H119          H  0.8634015  0.5001114  0.8830761    0.00000       Uiso       1.00
      H120          H  0.8413349  0.5080863  0.8549083    0.00000       Uiso       1.00
      C124          C  0.9987585  0.4099118  0.9439059    0.00000       Uiso       1.00
      C125          C  0.0044344  0.4225264  0.9335602    0.00000       Uiso       1.00
      C126          C  0.9930698  0.4510989  0.9391113    0.00000       Uiso       1.00
      C127          C  0.9810958  0.4266469  0.9596819    0.00000       Uiso       1.00
      C128          C  0.9692761  0.4550133  0.9647058    0.00000       Uiso       1.00
      C129          C  0.9748645  0.4679894  0.9545343    0.00000       Uiso       1.00
      H121          H  0.0178725  0.4103050  0.9212590    0.00000       Uiso       1.00
      C130          C  0.9838565  0.5348997  0.9286654    0.00000       Uiso       1.00
      C131          C  0.9680749  0.5172430  0.9119623    0.00000       Uiso       1.00
      C132          C  0.9630533  0.5054197  0.9234837    0.00000       Uiso       1.00
      C133          C  0.9942070  0.5405702  0.9573001    0.00000       Uiso       1.00
      C134          C  0.9886547  0.5292067  0.9689569    0.00000       Uiso       1.00
      C135          C  0.9732284  0.5110044  0.9522195    0.00000       Uiso       1.00
      H122          H  0.0178309  0.4865158  0.9966657    0.00000       Uiso       1.00
      H123          H  0.9587507  0.5131083  0.8899366    0.00000       Uiso       1.00
      C136          C  0.8737721  0.5352373  0.9290031    0.00000       Uiso       1.00
      C137          C  0.8905073  0.5519408  0.9466641    0.00000       Uiso       1.00
      C138          C  0.9188737  0.5404189  0.9584860    0.00000       Uiso       1.00
      C139          C  0.8863869  0.5066016  0.9233280    0.00000       Uiso       1.00
      C140          C  0.9149591  0.4949453  0.9346926    0.00000       Uiso       1.00
      C141          C  0.9318498  0.5116829  0.9528983    0.00000       Uiso       1.00
      H124          H  0.9561811  0.4672381  0.9773865    0.00000       Uiso       1.00
      H125          H  0.8741671  0.4930817  0.9098927    0.00000       Uiso       1.00
      C142          C  0.9990973  0.5199966  0.0539920    0.00000       Uiso       1.00
      C143          C  0.9704620  0.5303434  0.0413775    0.00000       Uiso       1.00
      C144          C  0.9588054  0.5247915  0.0128051    0.00000       Uiso       1.00
      C145          C  0.0158013  0.5042180  0.0372568    0.00000       Uiso       1.00
      C146          C  0.0042796  0.4991954  0.0088906    0.00000       Uiso       1.00
      C147          C  0.9755432  0.5093685  0.9959139    0.00000       Uiso       1.00
      H126          H  0.9310983  0.5539697  0.9715838    0.00000       Uiso       1.00
      H127          H  0.9959953  0.5355161  0.9911623    0.00000       Uiso       1.00
      H128          H  0.9569426  0.5426477  0.0535975    0.00000       Uiso       1.00
       N41          N  0.9753115  0.4146870  0.9726990    0.00000       Uiso       1.00
      H129          H  0.9622507  0.4297976  0.9831333    0.00000       Uiso       1.00
      H130          H  0.9931492  0.4061461  0.9858257    0.00000       Uiso       1.00
       N42          N  0.0019058  0.4630702  0.9288462    0.00000       Uiso       1.00
      H131          H  0.9923446  0.4836939  0.9341106    0.00000       Uiso       1.00
      H132          H  0.9967663  0.4546168  0.9081241    0.00000       Uiso       1.00
       N43          N  0.0465620  0.4912004  0.0492204    0.00000       Uiso       1.00
      H133          H  0.0549488  0.4807636  0.0341115    0.00000       Uiso       1.00
      H134          H  0.0503888  0.4780762  0.0577625    0.00000       Uiso       1.00
       N44          N  0.9277337  0.5350589  0.0008352    0.00000       Uiso       1.00
      H135          H  0.9219339  0.5297943  0.9802106    0.00000       Uiso       1.00
      H136          H  0.9206053  0.5557810  0.0092887    0.00000       Uiso       1.00
       N45          N  0.0113781  0.5593073  0.9761577    0.00000       Uiso       1.00
      H137          H  0.0169885  0.5610090  0.9958914    0.00000       Uiso       1.00
      H138          H  0.0002149  0.5781252  0.9740659    0.00000       Uiso       1.00
       N46          N  0.9453822  0.4871697  0.9045984    0.00000       Uiso       1.00
      H139          H  0.9435927  0.4801644  0.9158076    0.00000       Uiso       1.00
      H140          H  0.9542386  0.4710382  0.8906413    0.00000       Uiso       1.00
       N47          N  0.8785434  0.5827020  0.9524470    0.00000       Uiso       1.00
      H141          H  0.8936525  0.5910886  0.9655063    0.00000       Uiso       1.00
      H142          H  0.8639541  0.5910485  0.9610752    0.00000       Uiso       1.00
       N48          N  0.9269295  0.4638735  0.9258605    0.00000       Uiso       1.00
      H143          H  0.9475533  0.4580745  0.9354207    0.00000       Uiso       1.00
      H144          H  0.9227360  0.4560261  0.9052379    0.00000       Uiso       1.00
      C148          C  0.0365533  0.5324060  0.4273767    0.00000       Uiso       1.00
      C149          C  0.0506875  0.5303811  0.4538028    0.00000       Uiso       1.00
      C150          C  0.0386188  0.5263041  0.4659053    0.00000       Uiso       1.00
      C151          C  0.0101273  0.5303811  0.4132425    0.00000       Uiso       1.00
      C152          C  0.9980240  0.5263041  0.4253112    0.00000       Uiso       1.00
      C153          C  0.0115133  0.5251682  0.4524167    0.00000       Uiso       1.00
      H145          H  0.0722301  0.5320557  0.4656531    0.00000       Uiso       1.00
      C154          C  0.9962662  0.5726923  0.6778145    0.00000       Uiso       1.00
      C155          C  0.9942413  0.5868266  0.6634979    0.00000       Uiso       1.00
      C156          C  0.9901643  0.5747579  0.6352496    0.00000       Uiso       1.00
      C157          C  0.9942413  0.5462664  0.6634979    0.00000       Uiso       1.00
      C158          C  0.9901643  0.5341638  0.6352496    0.00000       Uiso       1.00
      C159          C  0.9890285  0.5476524  0.6204967    0.00000       Uiso       1.00
      H146          H  0.0509242  0.3752317  0.4857358    0.00000       Uiso       1.00
      H147          H  0.9959159  0.6083692  0.6748647    0.00000       Uiso       1.00
      C160          C  0.7861148  0.5726924  0.4676631    0.00000       Uiso       1.00
      C161          C  0.8004315  0.5462663  0.4696880    0.00000       Uiso       1.00
      C162          C  0.8286797  0.5341638  0.4737650    0.00000       Uiso       1.00
      C163          C  0.8004315  0.5868266  0.4696880    0.00000       Uiso       1.00
      C164          C  0.8286797  0.5747579  0.4737650    0.00000       Uiso       1.00
      C165          C  0.8434325  0.5476524  0.4749009    0.00000       Uiso       1.00
      H148          H  0.9781935  0.5234171  0.4130058    0.00000       Uiso       1.00
      H149          H  0.7890646  0.6083692  0.4680134    0.00000       Uiso       1.00
      C166          C  0.0365533  0.3222545  0.4273767    0.00000       Uiso       1.00
      C167          C  0.0101272  0.3365713  0.4132425    0.00000       Uiso       1.00
      C168          C  0.9980241  0.3648195  0.4253112    0.00000       Uiso       1.00
      C169          C  0.0506875  0.3365713  0.4538028    0.00000       Uiso       1.00
      C170          C  0.0386188  0.3648195  0.4659053    0.00000       Uiso       1.00
      C171          C  0.0115133  0.3795723  0.4524167    0.00000       Uiso       1.00
      H150          H  0.8390918  0.5143333  0.4766520    0.00000       Uiso       1.00
      H151          H  0.9872773  0.5143333  0.6248374    0.00000       Uiso       1.00
      C172          C  0.9638717  0.5000114  0.5000579    0.00000       Uiso       1.00
      H152          H  0.9982763  0.3252044  0.3916999    0.00000       Uiso       1.00
       N49          N  0.9944301  0.5325992  0.3847080    0.00000       Uiso       1.00
      H153          H  0.9758548  0.5306945  0.3776062    0.00000       Uiso       1.00
      H154          H  0.0052019  0.5174667  0.3719541    0.00000       Uiso       1.00
       N50          N  0.0558185  0.5222688  0.4936232    0.00000       Uiso       1.00
      H155          H  0.0446879  0.5195657  0.4999577    0.00000       Uiso       1.00
      H156          H  0.0614318  0.5390561  0.5074588    0.00000       Uiso       1.00
       N51          N  0.0792220  0.3215151  0.4694992    0.00000       Uiso       1.00
      H157          H  0.0863238  0.3348933  0.4880745    0.00000       Uiso       1.00
      H158          H  0.0919759  0.3131227  0.4587281    0.00000       Uiso       1.00
       N52          N  0.9703061  0.3793730  0.4081115    0.00000       Uiso       1.00
      H159          H  0.9639716  0.3995413  0.4192421    0.00000       Uiso       1.00
      H160          H  0.9564705  0.3708081  0.4024982    0.00000       Uiso       1.00
       N53          N  0.9964595  0.5305699  0.6785540    0.00000       Uiso       1.00
      H161          H  0.9945547  0.5119945  0.6651758    0.00000       Uiso       1.00
      H162          H  0.9813269  0.5413410  0.6869465    0.00000       Uiso       1.00
       N54          N  0.9861290  0.5919576  0.6206961    0.00000       Uiso       1.00
      H163          H  0.9834259  0.5808269  0.6005278    0.00000       Uiso       1.00
      H164          H  0.0029170  0.5975709  0.6292610    0.00000       Uiso       1.00
       N55          N  0.7853754  0.5305699  0.4674699    0.00000       Uiso       1.00
      H165          H  0.7987536  0.5119945  0.4693746    0.00000       Uiso       1.00
      H166          H  0.7703002  0.5279024  0.4489464    0.00000       Uiso       1.00
       N56          N  0.8432332  0.5919576  0.4778003    0.00000       Uiso       1.00
      H167          H  0.8634015  0.5808270  0.4805034    0.00000       Uiso       1.00
      H168          H  0.8413349  0.6089948  0.4945796    0.00000       Uiso       1.00
      C173          C  0.9987584  0.5199972  0.4648311    0.00000       Uiso       1.00
      C174          C  0.0044344  0.5303429  0.4934666    0.00000       Uiso       1.00
      C175          C  0.9930698  0.5247918  0.5051240    0.00000       Uiso       1.00
      C176          C  0.9810957  0.5042211  0.4481274    0.00000       Uiso       1.00
      C177          C  0.9692761  0.4991972  0.4596502    0.00000       Uiso       1.00
      C178          C  0.9748645  0.5093688  0.4883863    0.00000       Uiso       1.00
      H169          H  0.0178725  0.5426441  0.5069845    0.00000       Uiso       1.00
      C179          C  0.9838566  0.5352377  0.5901574    0.00000       Uiso       1.00
      C180          C  0.9680749  0.5519409  0.5734223    0.00000       Uiso       1.00
      C181          C  0.9630533  0.5404194  0.5450560    0.00000       Uiso       1.00
      C182          C  0.9942070  0.5066029  0.5775437    0.00000       Uiso       1.00
      C183          C  0.9886547  0.4949462  0.5489711    0.00000       Uiso       1.00
      C184          C  0.9732284  0.5116836  0.5320800    0.00000       Uiso       1.00
      H170          H  0.0178309  0.4672375  0.5077471    0.00000       Uiso       1.00
      H171          H  0.9587507  0.5739665  0.5819889    0.00000       Uiso       1.00
      C185          C  0.8737722  0.5349000  0.4800730    0.00000       Uiso       1.00
      C186          C  0.8905073  0.5172390  0.4958506    0.00000       Uiso       1.00
      C187          C  0.9188737  0.5054171  0.5008733    0.00000       Uiso       1.00
      C188          C  0.8863868  0.5405751  0.4697271    0.00000       Uiso       1.00
      C189          C  0.9149591  0.5292106  0.4752785    0.00000       Uiso       1.00
      C190          C  0.9318498  0.5110047  0.4907011    0.00000       Uiso       1.00
      H172          H  0.9561810  0.4865167  0.4460993    0.00000       Uiso       1.00
      H173          H  0.8741671  0.5540103  0.4574228    0.00000       Uiso       1.00
      C191          C  0.9990973  0.4099118  0.4651693    0.00000       Uiso       1.00
      C192          C  0.9704619  0.4225263  0.4594952    0.00000       Uiso       1.00
      C193          C  0.9588054  0.4510986  0.4708591    0.00000       Uiso       1.00
      C194          C  0.0158013  0.4266469  0.4828291    0.00000       Uiso       1.00
      C195          C  0.0042796  0.4550132  0.4946511    0.00000       Uiso       1.00
      C196          C  0.9755432  0.4679891  0.4890644    0.00000       Uiso       1.00
      H174          H  0.9310983  0.4923192  0.5135508    0.00000       Uiso       1.00
      H175          H  0.9959952  0.4727408  0.5404158    0.00000       Uiso       1.00
      H176          H  0.9569426  0.4103063  0.4460601    0.00000       Uiso       1.00
       N57          N  0.9753115  0.4912041  0.4173661    0.00000       Uiso       1.00
      H177          H  0.9622507  0.4807698  0.4089817    0.00000       Uiso       1.00
      H178          H  0.9931492  0.4780774  0.4135363    0.00000       Uiso       1.00
       N58          N  0.0019058  0.5350568  0.5361958    0.00000       Uiso       1.00
      H179          H  0.9923446  0.5297925  0.5419946    0.00000       Uiso       1.00
      H180          H  0.9967663  0.5557789  0.5433256    0.00000       Uiso       1.00
       N59          N  0.0465620  0.4146833  0.4886086    0.00000       Uiso       1.00
      H181          H  0.0549488  0.4297923  0.5016676    0.00000       Uiso       1.00
      H182          H  0.0503888  0.4061413  0.4707691    0.00000       Uiso       1.00
       N60          N  0.9277336  0.4630686  0.4620246    0.00000       Uiso       1.00
      H183          H  0.9219339  0.4836925  0.4715843    0.00000       Uiso       1.00
      H184          H  0.9206052  0.4546151  0.4671649    0.00000       Uiso       1.00
       N61          N  0.0113781  0.4877454  0.5945936    0.00000       Uiso       1.00
      H185          H  0.0169885  0.4680117  0.5821721    0.00000       Uiso       1.00
      H186          H  0.0002149  0.4898372  0.6043403    0.00000       Uiso       1.00
       N62          N  0.9453822  0.5593047  0.5280201    0.00000       Uiso       1.00
      H187          H  0.9435927  0.5480955  0.5080162    0.00000       Uiso       1.00
      H188          H  0.9542386  0.5732617  0.5347021    0.00000       Uiso       1.00
       N63          N  0.8785434  0.5114561  0.5088651    0.00000       Uiso       1.00
      H189          H  0.8936525  0.4983968  0.5193015    0.00000       Uiso       1.00
      H190          H  0.8639541  0.5028279  0.4939940    0.00000       Uiso       1.00
       N64          N  0.9269295  0.5380426  0.4650093    0.00000       Uiso       1.00
      H191          H  0.9475533  0.5284824  0.4702738    0.00000       Uiso       1.00
      H192          H  0.9227360  0.5586652  0.4735909    0.00000       Uiso       1.00
      C197          C  0.3222807  0.0365270  0.4273767    0.00000       Uiso       1.00
      C198          C  0.3365975  0.0506613  0.4538028    0.00000       Uiso       1.00
      C199          C  0.3648457  0.0385926  0.4659053    0.00000       Uiso       1.00
      C200          C  0.3365975  0.0101010  0.4132425    0.00000       Uiso       1.00
      C201          C  0.3648457  0.9979978  0.4253112    0.00000       Uiso       1.00
      C202          C  0.3795986  0.0114870  0.4524167    0.00000       Uiso       1.00
      H193          H  0.3252306  0.0722039  0.4656531    0.00000       Uiso       1.00
      C203          C  0.5727186  0.9962400  0.6778145    0.00000       Uiso       1.00
      C204          C  0.5462925  0.9942151  0.6634979    0.00000       Uiso       1.00
      C205          C  0.5341901  0.9901381  0.6352496    0.00000       Uiso       1.00
      C206          C  0.5868528  0.9942151  0.6634979    0.00000       Uiso       1.00
      C207          C  0.5747841  0.9901381  0.6352496    0.00000       Uiso       1.00
      C208          C  0.5476786  0.9890022  0.6204967    0.00000       Uiso       1.00
      H194          H  0.5234433  0.0508979  0.4857358    0.00000       Uiso       1.00
      H195          H  0.5344423  0.9958896  0.6748647    0.00000       Uiso       1.00
      C209          C  0.5727186  0.7860885  0.4676631    0.00000       Uiso       1.00
      C210          C  0.5868528  0.8004053  0.4696880    0.00000       Uiso       1.00
      C211          C  0.5747842  0.8286535  0.4737650    0.00000       Uiso       1.00
      C212          C  0.5462925  0.8004053  0.4696880    0.00000       Uiso       1.00
      C213          C  0.5341901  0.8286535  0.4737650    0.00000       Uiso       1.00
      C214          C  0.5476786  0.8434063  0.4749009    0.00000       Uiso       1.00
      H196          H  0.3752579  0.9781673  0.4130058    0.00000       Uiso       1.00
      H197          H  0.5344423  0.7890384  0.4680134    0.00000       Uiso       1.00
      C215          C  0.5324323  0.0365270  0.4273767    0.00000       Uiso       1.00
      C216          C  0.5304073  0.0101010  0.4132425    0.00000       Uiso       1.00
      C217          C  0.5263304  0.9979978  0.4253112    0.00000       Uiso       1.00
      C218          C  0.5304073  0.0506613  0.4538028    0.00000       Uiso       1.00
      C219          C  0.5263304  0.0385926  0.4659053    0.00000       Uiso       1.00
      C220          C  0.5251945  0.0114870  0.4524167    0.00000       Uiso       1.00
      H198          H  0.5870895  0.8390656  0.4766520    0.00000       Uiso       1.00
      H199          H  0.5870895  0.9872510  0.6248374    0.00000       Uiso       1.00
      C221          C  0.5000376  0.9638454  0.5000579    0.00000       Uiso       1.00
      H200          H  0.5320819  0.9982501  0.3916999    0.00000       Uiso       1.00
       N65          N  0.3215413  0.9944039  0.3847080    0.00000       Uiso       1.00
      H201          H  0.3349196  0.9758286  0.3776062    0.00000       Uiso       1.00
      H202          H  0.3131489  0.0051757  0.3719541    0.00000       Uiso       1.00
       N66          N  0.3793993  0.0557923  0.4936232    0.00000       Uiso       1.00
      H203          H  0.3995675  0.0446616  0.4999577    0.00000       Uiso       1.00
      H204          H  0.3708343  0.0614055  0.5074588    0.00000       Uiso       1.00
       N67          N  0.5326254  0.0791957  0.4694992    0.00000       Uiso       1.00
      H205          H  0.5307208  0.0862975  0.4880745    0.00000       Uiso       1.00
      H206          H  0.5174929  0.0919496  0.4587281    0.00000       Uiso       1.00
       N68          N  0.5222951  0.9702799  0.4081115    0.00000       Uiso       1.00
      H207          H  0.5195919  0.9639454  0.4192421    0.00000       Uiso       1.00
      H208          H  0.5390823  0.9564443  0.4024982    0.00000       Uiso       1.00
       N69          N  0.6153873  0.9964333  0.6785540    0.00000       Uiso       1.00
      H209          H  0.6224891  0.9945285  0.6651758    0.00000       Uiso       1.00
      H210          H  0.6281412  0.9813006  0.6869465    0.00000       Uiso       1.00
       N70          N  0.5064722  0.9861028  0.6206961    0.00000       Uiso       1.00
      H211          H  0.5001376  0.9833997  0.6005278    0.00000       Uiso       1.00
      H212          H  0.4926365  0.0028908  0.6292610    0.00000       Uiso       1.00
       N71          N  0.6153873  0.7853491  0.4674699    0.00000       Uiso       1.00
      H213          H  0.6224891  0.7987273  0.4693746    0.00000       Uiso       1.00
      H214          H  0.6146065  0.7702740  0.4489464    0.00000       Uiso       1.00
       N72          N  0.5064722  0.8432070  0.4778003    0.00000       Uiso       1.00
      H215          H  0.5001376  0.8633752  0.4805034    0.00000       Uiso       1.00
      H216          H  0.5081125  0.8413087  0.4945796    0.00000       Uiso       1.00
      C222          C  0.4099381  0.9987322  0.4648311    0.00000       Uiso       1.00
      C223          C  0.4225526  0.0044081  0.4934666    0.00000       Uiso       1.00
      C224          C  0.4511251  0.9930435  0.5051240    0.00000       Uiso       1.00
      C225          C  0.4266732  0.9810695  0.4481274    0.00000       Uiso       1.00
      C226          C  0.4550395  0.9692499  0.4596502    0.00000       Uiso       1.00
      C227          C  0.4680157  0.9748382  0.4883863    0.00000       Uiso       1.00
      H217          H  0.4103312  0.0178462  0.5069845    0.00000       Uiso       1.00
      C228          C  0.5349259  0.9838303  0.5901574    0.00000       Uiso       1.00
      C229          C  0.5172692  0.9680486  0.5734223    0.00000       Uiso       1.00
      C230          C  0.5054459  0.9630271  0.5450560    0.00000       Uiso       1.00
      C231          C  0.5405965  0.9941807  0.5775437    0.00000       Uiso       1.00
      C232          C  0.5292329  0.9886284  0.5489711    0.00000       Uiso       1.00
      C233          C  0.5110307  0.9732021  0.5320800    0.00000       Uiso       1.00
      H218          H  0.4865420  0.0178047  0.5077471    0.00000       Uiso       1.00
      H219          H  0.5131345  0.9587244  0.5819889    0.00000       Uiso       1.00
      C234          C  0.5352635  0.8737460  0.4800730    0.00000       Uiso       1.00
      C235          C  0.5519670  0.8904811  0.4958506    0.00000       Uiso       1.00
      C236          C  0.5404451  0.9188475  0.5008733    0.00000       Uiso       1.00
      C237          C  0.5066279  0.8863606  0.4697271    0.00000       Uiso       1.00
      C238          C  0.4949715  0.9149329  0.4752785    0.00000       Uiso       1.00
      C239          C  0.5117091  0.9318237  0.4907011    0.00000       Uiso       1.00
      H220          H  0.4672643  0.9561548  0.4460993    0.00000       Uiso       1.00
      H221          H  0.4931079  0.8741409  0.4574228    0.00000       Uiso       1.00
      C240          C  0.5200229  0.9990711  0.4651693    0.00000       Uiso       1.00
      C241          C  0.5303697  0.9704357  0.4594952    0.00000       Uiso       1.00
      C242          C  0.5248178  0.9587791  0.4708591    0.00000       Uiso       1.00
      C243          C  0.5042442  0.0157751  0.4828291    0.00000       Uiso       1.00
      C244          C  0.4992216  0.0042534  0.4946511    0.00000       Uiso       1.00
      C245          C  0.5093948  0.9755170  0.4890644    0.00000       Uiso       1.00
      H222          H  0.5539959  0.9310721  0.5135508    0.00000       Uiso       1.00
      H223          H  0.5355424  0.9959690  0.5404158    0.00000       Uiso       1.00
      H224          H  0.5426739  0.9569163  0.4460601    0.00000       Uiso       1.00
       N73          N  0.4147132  0.9752852  0.4173661    0.00000       Uiso       1.00
      H225          H  0.4298238  0.9622244  0.4089817    0.00000       Uiso       1.00
      H226          H  0.4061724  0.9931229  0.4135363    0.00000       Uiso       1.00
       N74          N  0.4630964  0.0018796  0.5361958    0.00000       Uiso       1.00
      H227          H  0.4837202  0.9923184  0.5419946    0.00000       Uiso       1.00
      H228          H  0.4546430  0.9967401  0.5433256    0.00000       Uiso       1.00
       N75          N  0.4912267  0.0465357  0.4886086    0.00000       Uiso       1.00
      H229          H  0.4807898  0.0549226  0.5016676    0.00000       Uiso       1.00
      H230          H  0.4781024  0.0503625  0.4707691    0.00000       Uiso       1.00
       N76          N  0.5350851  0.9277074  0.4620246    0.00000       Uiso       1.00
      H231          H  0.5298206  0.9219077  0.4715843    0.00000       Uiso       1.00
      H232          H  0.5558073  0.9205790  0.4671649    0.00000       Uiso       1.00
       N77          N  0.5593334  0.0113518  0.5945936    0.00000       Uiso       1.00
      H233          H  0.5610352  0.0169623  0.5821721    0.00000       Uiso       1.00
      H234          H  0.5781515  0.0001887  0.6043403    0.00000       Uiso       1.00
       N78          N  0.4871958  0.9453560  0.5280201    0.00000       Uiso       1.00
      H235          H  0.4801907  0.9435664  0.5080162    0.00000       Uiso       1.00
      H236          H  0.4710644  0.9542123  0.5347021    0.00000       Uiso       1.00
       N79          N  0.5827282  0.8785172  0.5088651    0.00000       Uiso       1.00
      H237          H  0.5911148  0.8936263  0.5193015    0.00000       Uiso       1.00
      H238          H  0.5910747  0.8639278  0.4939940    0.00000       Uiso       1.00
       N80          N  0.4638998  0.9269033  0.4650093    0.00000       Uiso       1.00
      H239          H  0.4581007  0.9475271  0.4702738    0.00000       Uiso       1.00
      H240          H  0.4560523  0.9227098  0.4735909    0.00000       Uiso       1.00
      C246          C  0.0365533  0.0365270  0.1416493    0.00000       Uiso       1.00
      C247          C  0.0506875  0.0101010  0.1273325    0.00000       Uiso       1.00
      C248          C  0.0386188  0.9979979  0.0990843    0.00000       Uiso       1.00
      C249          C  0.0101273  0.0506613  0.1273325    0.00000       Uiso       1.00
      C250          C  0.9980241  0.0385926  0.0990843    0.00000       Uiso       1.00
      C251          C  0.0115133  0.0114870  0.0843314    0.00000       Uiso       1.00
      H241          H  0.0722301  0.9982500  0.1386994    0.00000       Uiso       1.00
      C252          C  0.9962662  0.7860885  0.8912107    0.00000       Uiso       1.00
      C253          C  0.9942413  0.8004053  0.9176368    0.00000       Uiso       1.00
      C254          C  0.9901643  0.8286535  0.9297392    0.00000       Uiso       1.00
      C255          C  0.9942413  0.8004053  0.8770765    0.00000       Uiso       1.00
      C256          C  0.9901643  0.8286535  0.8891452    0.00000       Uiso       1.00
      C257          C  0.9890285  0.8434063  0.9162506    0.00000       Uiso       1.00
      H242          H  0.0509242  0.9781673  0.9404861    0.00000       Uiso       1.00
      H243          H  0.9959159  0.7890384  0.9294870    0.00000       Uiso       1.00
      C258          C  0.7861148  0.9962400  0.8912107    0.00000       Uiso       1.00
      C259          C  0.8004315  0.9942151  0.8770765    0.00000       Uiso       1.00
      C260          C  0.8286797  0.9901381  0.8891452    0.00000       Uiso       1.00
      C261          C  0.8004315  0.9942150  0.9176368    0.00000       Uiso       1.00
      C262          C  0.8286797  0.9901381  0.9297392    0.00000       Uiso       1.00
      C263          C  0.8434325  0.9890022  0.9162506    0.00000       Uiso       1.00
      H244          H  0.9781936  0.0508979  0.0886721    0.00000       Uiso       1.00
      H245          H  0.7890646  0.9958897  0.9294870    0.00000       Uiso       1.00
      C264          C  0.0365533  0.0365271  0.9314971    0.00000       Uiso       1.00
      C265          C  0.0101272  0.0506613  0.9335220    0.00000       Uiso       1.00
      C266          C  0.9980241  0.0385926  0.9375990    0.00000       Uiso       1.00
      C267          C  0.0506875  0.0101010  0.9335220    0.00000       Uiso       1.00
      C268          C  0.0386188  0.9979979  0.9375990    0.00000       Uiso       1.00
      C269          C  0.0115133  0.0114870  0.9387348    0.00000       Uiso       1.00
      H246          H  0.8390919  0.9872511  0.8768398    0.00000       Uiso       1.00
      H247          H  0.9872773  0.8390657  0.8768398    0.00000       Uiso       1.00
      C270          C  0.9638717  0.9638451  0.9638918    0.00000       Uiso       1.00
      H248          H  0.9982762  0.0722038  0.9318474    0.00000       Uiso       1.00
       N81          N  0.9944302  0.0791957  0.1423886    0.00000       Uiso       1.00
      H249          H  0.9758548  0.0862976  0.1290104    0.00000       Uiso       1.00
      H250          H  0.0052019  0.0919496  0.1507811    0.00000       Uiso       1.00
       N82          N  0.0558185  0.9702799  0.0845307    0.00000       Uiso       1.00
      H251          H  0.0446879  0.9639453  0.0643625    0.00000       Uiso       1.00
      H252          H  0.0614318  0.9564443  0.0930957    0.00000       Uiso       1.00
       N83          N  0.0792220  0.9944039  0.9313039    0.00000       Uiso       1.00
      H253          H  0.0863238  0.9758285  0.9332086    0.00000       Uiso       1.00
      H254          H  0.0919759  0.0051757  0.9464365    0.00000       Uiso       1.00
       N84          N  0.9703062  0.0557922  0.9416343    0.00000       Uiso       1.00
      H255          H  0.9639716  0.0446616  0.9443374    0.00000       Uiso       1.00
      H256          H  0.9564705  0.0614055  0.9248469    0.00000       Uiso       1.00
       N85          N  0.9964594  0.7853491  0.8485420    0.00000       Uiso       1.00
      H257          H  0.9945548  0.7987273  0.8414402    0.00000       Uiso       1.00
      H258          H  0.9813269  0.7769567  0.8357881    0.00000       Uiso       1.00
       N86          N  0.9861290  0.8432070  0.9574572    0.00000       Uiso       1.00
      H259          H  0.9834259  0.8633753  0.9637917    0.00000       Uiso       1.00
      H260          H  0.0029170  0.8346421  0.9712928    0.00000       Uiso       1.00
       N87          N  0.7853754  0.9964332  0.8485420    0.00000       Uiso       1.00
      H261          H  0.7987536  0.9945285  0.8414402    0.00000       Uiso       1.00
      H262          H  0.7703002  0.0149574  0.8493229    0.00000       Uiso       1.00
       N88          N  0.8432332  0.9861028  0.9574572    0.00000       Uiso       1.00
      H263          H  0.8634015  0.9833997  0.9637917    0.00000       Uiso       1.00
      H264          H  0.8413349  0.9693235  0.9558168    0.00000       Uiso       1.00
      C271          C  0.9987585  0.9990720  0.0539919    0.00000       Uiso       1.00
      C272          C  0.0044344  0.9704365  0.0413774    0.00000       Uiso       1.00
      C273          C  0.9930698  0.9587791  0.0128049    0.00000       Uiso       1.00
      C274          C  0.9810958  0.0157764  0.0372568    0.00000       Uiso       1.00
      C275          C  0.9692761  0.0042535  0.0088905    0.00000       Uiso       1.00
      C276          C  0.9748645  0.9755168  0.9959137    0.00000       Uiso       1.00
      H265          H  0.0178725  0.9569186  0.0535988    0.00000       Uiso       1.00
      C277          C  0.9838565  0.8737457  0.9290034    0.00000       Uiso       1.00
      C278          C  0.9680749  0.8904809  0.9466602    0.00000       Uiso       1.00
      C279          C  0.9630533  0.9188471  0.9584834    0.00000       Uiso       1.00
      C280          C  0.9942070  0.8863593  0.9233329    0.00000       Uiso       1.00
      C281          C  0.9886547  0.9149320  0.9346964    0.00000       Uiso       1.00
      C282          C  0.9732283  0.9318231  0.9528987    0.00000       Uiso       1.00
      H266          H  0.0178309  0.9561560  0.9773874    0.00000       Uiso       1.00
      H267          H  0.9587507  0.8819141  0.9507949    0.00000       Uiso       1.00
      C283          C  0.8737722  0.9838301  0.9286658    0.00000       Uiso       1.00
      C284          C  0.8905073  0.9680524  0.9119623    0.00000       Uiso       1.00
      C285          C  0.9188738  0.9630298  0.9234843    0.00000       Uiso       1.00
      C286          C  0.8863868  0.9941760  0.9573014    0.00000       Uiso       1.00
      C287          C  0.9149591  0.9886246  0.9689578    0.00000       Uiso       1.00
      C288          C  0.9318499  0.9732020  0.9522202    0.00000       Uiso       1.00
      H268          H  0.9561810  0.0178044  0.9966650    0.00000       Uiso       1.00
      H269          H  0.8741671  0.0064811  0.9708214    0.00000       Uiso       1.00
      C289          C  0.9990973  0.9987337  0.9439065    0.00000       Uiso       1.00
      C290          C  0.9704619  0.0044086  0.9335597    0.00000       Uiso       1.00
      C291          C  0.9588054  0.9930440  0.9391115    0.00000       Uiso       1.00
      C292          C  0.0158013  0.9810740  0.9596851    0.00000       Uiso       1.00
      C293          C  0.0042797  0.9692519  0.9647077    0.00000       Uiso       1.00
      C294          C  0.9755432  0.9748386  0.9545346    0.00000       Uiso       1.00
      H270          H  0.9310983  0.9503523  0.9099334    0.00000       Uiso       1.00
      H271          H  0.9959952  0.9234874  0.9283870    0.00000       Uiso       1.00
      H272          H  0.9569426  0.0178437  0.9212554    0.00000       Uiso       1.00
       N89          N  0.9753115  0.0465377  0.0492168    0.00000       Uiso       1.00
      H273          H  0.9622506  0.0549221  0.0341062    0.00000       Uiso       1.00
      H274          H  0.9931492  0.0503675  0.0577576    0.00000       Uiso       1.00
       N90          N  0.0019058  0.9277073  0.0008336    0.00000       Uiso       1.00
      H275          H  0.9923446  0.9219085  0.9802091    0.00000       Uiso       1.00
      H276          H  0.9967663  0.9205775  0.0092870    0.00000       Uiso       1.00
       N91          N  0.0465620  0.9752944  0.9727026    0.00000       Uiso       1.00
      H277          H  0.0549489  0.9622355  0.9831396    0.00000       Uiso       1.00
      H278          H  0.0503888  0.9931340  0.9858269    0.00000       Uiso       1.00
       N92          N  0.9277336  0.0018792  0.9288443    0.00000       Uiso       1.00
      H279          H  0.9219340  0.9923187  0.9341088    0.00000       Uiso       1.00
      H280          H  0.9206052  0.9967381  0.9081221    0.00000       Uiso       1.00
       N93          N  0.0113781  0.8693095  0.9045959    0.00000       Uiso       1.00
      H281          H  0.0169885  0.8817310  0.9028941    0.00000       Uiso       1.00
      H282          H  0.0002149  0.8595628  0.8857778    0.00000       Uiso       1.00
       N94          N  0.9453822  0.9358829  0.9767334    0.00000       Uiso       1.00
      H283          H  0.9435926  0.9558870  0.9837387    0.00000       Uiso       1.00
      H284          H  0.9542386  0.9292011  0.9928650    0.00000       Uiso       1.00
       N95          N  0.8785434  0.9550381  0.8812011    0.00000       Uiso       1.00
      H285          H  0.8936524  0.9446017  0.8728145    0.00000       Uiso       1.00
      H286          H  0.8639541  0.9699091  0.8728547    0.00000       Uiso       1.00
       N96          N  0.9269295  0.9988939  0.0000302    0.00000       Uiso       1.00
      H287          H  0.9475534  0.9936293  0.0058293    0.00000       Uiso       1.00
      H288          H  0.9227360  0.9903122  0.0078777    0.00000       Uiso       1.00
        B1          B  0.5868630  0.7546760  0.8770664    0.00000       Uiso       1.00
        B2          B  0.5868630  0.5868368  0.7092270    0.00000       Uiso       1.00
        B3          B  0.7547023  0.5868368  0.8770664    0.00000       Uiso       1.00
      C295          C  0.6180590  0.6662332  0.8216856    0.00000       Uiso       1.00
      C296          C  0.5951623  0.7138082  0.8458804    0.00000       Uiso       1.00
      H289          H  0.5752777  0.6926322  0.8052120    0.00000       Uiso       1.00
        O1          O  0.5739153  0.7388617  0.8488587    0.00000       Uiso       1.00
      C297          C  0.5944727  0.6906985  0.8223718    0.00000       Uiso       1.00
      C298          C  0.6422437  0.6180328  0.7976698    0.00000       Uiso       1.00
      C299          C  0.6180489  0.5951360  0.7500949    0.00000       Uiso       1.00
      H290          H  0.6587173  0.5752515  0.7712709    0.00000       Uiso       1.00
        O2          O  0.6150706  0.5738891  0.7250414    0.00000       Uiso       1.00
      C300          C  0.6415575  0.5944465  0.7732046    0.00000       Uiso       1.00
      C301          C  0.6662594  0.6422175  0.8458703    0.00000       Uiso       1.00
      C302          C  0.7138344  0.6180227  0.8687670    0.00000       Uiso       1.00
      H291          H  0.6926584  0.6586911  0.8886516    0.00000       Uiso       1.00
        O3          O  0.7388880  0.6150444  0.8900140    0.00000       Uiso       1.00
      C303          C  0.6907247  0.6415313  0.8694566    0.00000       Uiso       1.00
      C304          C  0.6180590  0.6422175  0.7976698    0.00000       Uiso       1.00
      C305          C  0.5951623  0.6180227  0.7500949    0.00000       Uiso       1.00
        O4          O  0.5739154  0.6150444  0.7250414    0.00000       Uiso       1.00
      H292          H  0.5752777  0.6586911  0.7712709    0.00000       Uiso       1.00
      C306          C  0.5944727  0.6415312  0.7732046    0.00000       Uiso       1.00
      C307          C  0.6422437  0.6662332  0.8458703    0.00000       Uiso       1.00
      C308          C  0.6180489  0.7138082  0.8687670    0.00000       Uiso       1.00
      H293          H  0.6587173  0.6926322  0.8886516    0.00000       Uiso       1.00
        O5          O  0.6150706  0.7388617  0.8900140    0.00000       Uiso       1.00
      C309          C  0.6415575  0.6906985  0.8694566    0.00000       Uiso       1.00
      C310          C  0.6662594  0.6180328  0.8216856    0.00000       Uiso       1.00
      C311          C  0.7138344  0.5951361  0.8458804    0.00000       Uiso       1.00
      H294          H  0.6926584  0.5752515  0.8052120    0.00000       Uiso       1.00
        O6          O  0.7388880  0.5738891  0.8488587    0.00000       Uiso       1.00
      C312          C  0.6907247  0.5944465  0.8223718    0.00000       Uiso       1.00
        B4          B  0.7547023  0.5868368  0.4645393    0.00000       Uiso       1.00
        B5          B  0.5868630  0.5868368  0.4645393    0.00000       Uiso       1.00
        B6          B  0.5868630  0.7546761  0.4645393    0.00000       Uiso       1.00
      C313          C  0.6662594  0.6180328  0.4626733    0.00000       Uiso       1.00
      C314          C  0.7138345  0.5951361  0.4631567    0.00000       Uiso       1.00
      H295          H  0.6926585  0.5752515  0.4627646    0.00000       Uiso       1.00
        O7          O  0.7388880  0.5738891  0.4639850    0.00000       Uiso       1.00
      C315          C  0.6907247  0.5944465  0.4628660    0.00000       Uiso       1.00
      C316          C  0.6180590  0.6422175  0.4626733    0.00000       Uiso       1.00
      C317          C  0.5951623  0.6180227  0.4631567    0.00000       Uiso       1.00
      H296          H  0.5752777  0.6586911  0.4627646    0.00000       Uiso       1.00
        O8          O  0.5739153  0.6150444  0.4639850    0.00000       Uiso       1.00
      C318          C  0.5944727  0.6415312  0.4628660    0.00000       Uiso       1.00
      C319          C  0.6422437  0.6662332  0.4626733    0.00000       Uiso       1.00
      C320          C  0.6180489  0.7138082  0.4631567    0.00000       Uiso       1.00
      H297          H  0.6587173  0.6926322  0.4627646    0.00000       Uiso       1.00
        O9          O  0.6150706  0.7388617  0.4639850    0.00000       Uiso       1.00
      C321          C  0.6415575  0.6906985  0.4628660    0.00000       Uiso       1.00
      C322          C  0.6422437  0.6180328  0.4626733    0.00000       Uiso       1.00
      C323          C  0.6180490  0.5951361  0.4631567    0.00000       Uiso       1.00
       O10          O  0.6150706  0.5738891  0.4639850    0.00000       Uiso       1.00
      H298          H  0.6587173  0.5752515  0.4627646    0.00000       Uiso       1.00
      C324          C  0.6415575  0.5944465  0.4628660    0.00000       Uiso       1.00
      C325          C  0.6662594  0.6422175  0.4626733    0.00000       Uiso       1.00
      C326          C  0.7138344  0.6180227  0.4631567    0.00000       Uiso       1.00
      H299          H  0.6926585  0.6586911  0.4627646    0.00000       Uiso       1.00
       O11          O  0.7388880  0.6150444  0.4639850    0.00000       Uiso       1.00
      C327          C  0.6907247  0.6415312  0.4628660    0.00000       Uiso       1.00
      C328          C  0.6180590  0.6662332  0.4626733    0.00000       Uiso       1.00
      C329          C  0.5951623  0.7138082  0.4631567    0.00000       Uiso       1.00
      H300          H  0.5752777  0.6926322  0.4627646    0.00000       Uiso       1.00
       O12          O  0.5739154  0.7388617  0.4639850    0.00000       Uiso       1.00
      C330          C  0.5944727  0.6906985  0.4628660    0.00000       Uiso       1.00
      C331          C  0.5374758  0.2498976  0.3823485    0.00000       Uiso       1.00
      C332          C  0.5388899  0.2262579  0.3588813    0.00000       Uiso       1.00
      C333          C  0.5416384  0.2255064  0.3363578    0.00000       Uiso       1.00
      C334          C  0.5416262  0.2021425  0.3124910    0.00000       Uiso       1.00
      C335          C  0.5372984  0.1795440  0.3099875    0.00000       Uiso       1.00
      C336          C  0.5341526  0.1809188  0.3327911    0.00000       Uiso       1.00
      C337          C  0.5368581  0.2030073  0.3579613    0.00000       Uiso       1.00
       O13          O  0.5380685  0.2746859  0.3861142    0.00000       Uiso       1.00
      H301          H  0.5438231  0.2431515  0.3373613    0.00000       Uiso       1.00
      H302          H  0.5447343  0.2022434  0.2960648    0.00000       Uiso       1.00
      H303          H  0.5278138  0.1655600  0.3304247    0.00000       Uiso       1.00
      C338          C  0.5375484  0.0815235  0.4050955    0.00000       Uiso       1.00
      C339          C  0.5389791  0.1049846  0.4063403    0.00000       Uiso       1.00
      C340          C  0.5417139  0.1275170  0.4308554    0.00000       Uiso       1.00
      C341          C  0.5416934  0.1513846  0.4313388    0.00000       Uiso       1.00
      C342          C  0.5373642  0.1538842  0.4069136    0.00000       Uiso       1.00
      C343          C  0.5342456  0.1310643  0.3823479    0.00000       Uiso       1.00
      C344          C  0.5369625  0.1058937  0.3819810    0.00000       Uiso       1.00
       O14          O  0.5381038  0.0777776  0.4267039    0.00000       Uiso       1.00
      H304          H  0.5438804  0.1265283  0.4496802    0.00000       Uiso       1.00
      H305          H  0.5447879  0.1678167  0.4509707    0.00000       Uiso       1.00
      H306          H  0.5279088  0.1334148  0.3630117    0.00000       Uiso       1.00
      C345          C  0.5375234  0.0588207  0.2140285    0.00000       Uiso       1.00
      C346          C  0.5389753  0.0575701  0.2376794    0.00000       Uiso       1.00
      C347          C  0.5417486  0.0330421  0.2384356    0.00000       Uiso       1.00
      C348          C  0.5417625  0.0325410  0.2618086    0.00000       Uiso       1.00
      C349          C  0.5374371  0.0569617  0.2844106    0.00000       Uiso       1.00
      C350          C  0.5342814  0.0815429  0.2830353    0.00000       Uiso       1.00
      C351          C  0.5369516  0.0819296  0.2609314    0.00000       Uiso       1.00
       O15          O  0.5381113  0.0372038  0.1892419    0.00000       Uiso       1.00
      H307          H  0.5439182  0.0142237  0.2207784    0.00000       Uiso       1.00
      H308          H  0.5448772  0.0129026  0.2617071    0.00000       Uiso       1.00
      H309          H  0.5279524  0.1008724  0.2984003    0.00000       Uiso       1.00
      C352          C  0.5339473  0.0829677  0.2129050    0.00000       Uiso       1.00
      C353          C  0.5332922  0.1071313  0.2358949    0.00000       Uiso       1.00
      C354          C  0.5302982  0.1316101  0.2348508    0.00000       Uiso       1.00
      C355          C  0.5307398  0.1552968  0.2583922    0.00000       Uiso       1.00
      C356          C  0.5357810  0.1546043  0.2839822    0.00000       Uiso       1.00
      C357          C  0.5393687  0.1295257  0.2846971    0.00000       Uiso       1.00
      C358          C  0.5361596  0.1063624  0.2606900    0.00000       Uiso       1.00
       O16          O  0.5319088  0.0800744  0.1872976    0.00000       Uiso       1.00
      H310          H  0.5275059  0.1323235  0.2156349    0.00000       Uiso       1.00
      H311          H  0.5273217  0.1739255  0.2562381    0.00000       Uiso       1.00
      H312          H  0.5462950  0.1274213  0.3042993    0.00000       Uiso       1.00
      C359          C  0.5340196  0.0598076  0.3809576    0.00000       Uiso       1.00
      C360          C  0.5333901  0.0592813  0.3568023    0.00000       Uiso       1.00
      C361          C  0.5304554  0.0367287  0.3323358    0.00000       Uiso       1.00
      C362          C  0.5309154  0.0361408  0.3086589    0.00000       Uiso       1.00
      C363          C  0.5359104  0.0574099  0.3093447    0.00000       Uiso       1.00
      C364          C  0.5394428  0.0796370  0.3344132    0.00000       Uiso       1.00
      C365          C  0.5362197  0.0819957  0.3575647    0.00000       Uiso       1.00
       O17          O  0.5319893  0.0391282  0.3838516    0.00000       Uiso       1.00
      H313          H  0.5276827  0.0195775  0.3316205    0.00000       Uiso       1.00
      H314          H  0.5275385  0.0187546  0.2900407    0.00000       Uiso       1.00
      H315          H  0.5463488  0.0944396  0.3365311    0.00000       Uiso       1.00
      C366          C  0.5339443  0.2510011  0.4040622    0.00000       Uiso       1.00
      C367          C  0.5332965  0.2280066  0.4045767    0.00000       Uiso       1.00
      C368          C  0.5303698  0.2290283  0.4271328    0.00000       Uiso       1.00
      C369          C  0.5308337  0.2054805  0.4277265    0.00000       Uiso       1.00
      C370          C  0.5358143  0.1799018  0.4064499    0.00000       Uiso       1.00
      C371          C  0.5393270  0.1792127  0.3842098    0.00000       Uiso       1.00
      C372          C  0.5361106  0.2032292  0.3818552    0.00000       Uiso       1.00
       O18          O  0.5319442  0.2765934  0.4247586    0.00000       Uiso       1.00
      H316          H  0.5276080  0.2482385  0.4442859    0.00000       Uiso       1.00
      H317          H  0.5274747  0.2076276  0.4451246    0.00000       Uiso       1.00
      H318          H  0.5462193  0.1596206  0.3693970    0.00000       Uiso       1.00
        B7          B  0.5345491  0.2914783  0.4131220    0.00000       Uiso       1.00
        B8          B  0.5345700  0.0507771  0.4129722    0.00000       Uiso       1.00
        B9          B  0.5345442  0.0509407  0.1724270    0.00000       Uiso       1.00
      C373          C  0.2499238  0.5374495  0.4050914    0.00000       Uiso       1.00
      C374          C  0.2262842  0.5388637  0.4063332    0.00000       Uiso       1.00
      C375          C  0.2255327  0.5416122  0.4308538    0.00000       Uiso       1.00
      C376          C  0.2021687  0.5415999  0.4313443    0.00000       Uiso       1.00
      C377          C  0.1795703  0.5372722  0.4069216    0.00000       Uiso       1.00
      C378          C  0.1809450  0.5341263  0.3823469    0.00000       Uiso       1.00
      C379          C  0.2030335  0.5368319  0.3819708    0.00000       Uiso       1.00
       O19          O  0.2747121  0.5380423  0.4267068    0.00000       Uiso       1.00
      H319          H  0.2431777  0.5437969  0.4496800    0.00000       Uiso       1.00
      H320          H  0.2022696  0.5447080  0.4509795    0.00000       Uiso       1.00
      H321          H  0.1655862  0.5277876  0.3630158    0.00000       Uiso       1.00
      C380          C  0.0815497  0.5375221  0.2140431    0.00000       Uiso       1.00
      C381          C  0.1050109  0.5389528  0.2376900    0.00000       Uiso       1.00
      C382          C  0.1275433  0.5416876  0.2384422    0.00000       Uiso       1.00
      C383          C  0.1514108  0.5416672  0.2618060    0.00000       Uiso       1.00
      C384          C  0.1539105  0.5373379  0.2844014    0.00000       Uiso       1.00
      C385          C  0.1310905  0.5342193  0.2830286    0.00000       Uiso       1.00
      C386          C  0.1059199  0.5369363  0.2609419    0.00000       Uiso       1.00
       O20          O  0.0778038  0.5380776  0.1892442    0.00000       Uiso       1.00
      H322          H  0.1265545  0.5438542  0.2207951    0.00000       Uiso       1.00
      H323          H  0.1678429  0.5447617  0.2617006    0.00000       Uiso       1.00
      H324          H  0.1334411  0.5278826  0.2983786    0.00000       Uiso       1.00
      C387          C  0.0588470  0.5374972  0.3823823    0.00000       Uiso       1.00
      C388          C  0.0575963  0.5389491  0.3589327    0.00000       Uiso       1.00
      C389          C  0.0330684  0.5417223  0.3364218    0.00000       Uiso       1.00
      C390          C  0.0325673  0.5417363  0.3125616    0.00000       Uiso       1.00
      C391          C  0.0569880  0.5374109  0.3100550    0.00000       Uiso       1.00
      C392          C  0.0815691  0.5342551  0.3328556    0.00000       Uiso       1.00
      C393          C  0.0819558  0.5369254  0.3580164    0.00000       Uiso       1.00
       O21          O  0.0372300  0.5380851  0.3861399    0.00000       Uiso       1.00
      H325          H  0.0142499  0.5438920  0.3374301    0.00000       Uiso       1.00
      H326          H  0.0129288  0.5448509  0.2961392    0.00000       Uiso       1.00
      H327          H  0.1008987  0.5279261  0.3304912    0.00000       Uiso       1.00
      C394          C  0.0829940  0.5339211  0.4040767    0.00000       Uiso       1.00
      C395          C  0.1071576  0.5332659  0.4045953    0.00000       Uiso       1.00
      C396          C  0.1316363  0.5302719  0.4271241    0.00000       Uiso       1.00
      C397          C  0.1553231  0.5307136  0.4277112    0.00000       Uiso       1.00
      C398          C  0.1546306  0.5357548  0.4064698    0.00000       Uiso       1.00
      C399          C  0.1295519  0.5393425  0.3842639    0.00000       Uiso       1.00
      C400          C  0.1063887  0.5361333  0.3818986    0.00000       Uiso       1.00
       O22          O  0.0801006  0.5318826  0.4247522    0.00000       Uiso       1.00
      H328          H  0.1323497  0.5274796  0.4442611    0.00000       Uiso       1.00
      H329          H  0.1739518  0.5272955  0.4450758    0.00000       Uiso       1.00
      H330          H  0.1274475  0.5462688  0.3694836    0.00000       Uiso       1.00
      C401          C  0.0598338  0.5339934  0.2129362    0.00000       Uiso       1.00
      C402          C  0.0593076  0.5333638  0.2359358    0.00000       Uiso       1.00
      C403          C  0.0367549  0.5304291  0.2349149    0.00000       Uiso       1.00
      C404          C  0.0361671  0.5308892  0.2584640    0.00000       Uiso       1.00
      C405          C  0.0574361  0.5358841  0.2840422    0.00000       Uiso       1.00
      C406          C  0.0796632  0.5394165  0.2847331    0.00000       Uiso       1.00
      C407          C  0.0820220  0.5361935  0.2607174    0.00000       Uiso       1.00
       O23          O  0.0391544  0.5319631  0.1873326    0.00000       Uiso       1.00
      H331          H  0.0196037  0.5276564  0.2157064    0.00000       Uiso       1.00
      H332          H  0.0187808  0.5275123  0.2563191    0.00000       Uiso       1.00
      H333          H  0.0944658  0.5463226  0.3043239    0.00000       Uiso       1.00
      C408          C  0.2510273  0.5339180  0.3809498    0.00000       Uiso       1.00
      C409          C  0.2280328  0.5332702  0.3567930    0.00000       Uiso       1.00
      C410          C  0.2290546  0.5303435  0.3323319    0.00000       Uiso       1.00
      C411          C  0.2055068  0.5308075  0.3086544    0.00000       Uiso       1.00
      C412          C  0.1799280  0.5357881  0.3093328    0.00000       Uiso       1.00
      C413          C  0.1792389  0.5393008  0.3343966    0.00000       Uiso       1.00
      C414          C  0.2032554  0.5360843  0.3575512    0.00000       Uiso       1.00
       O24          O  0.2766196  0.5319180  0.3838456    0.00000       Uiso       1.00
      H334          H  0.2482647  0.5275817  0.3316272    0.00000       Uiso       1.00
      H335          H  0.2076538  0.5274484  0.2900443    0.00000       Uiso       1.00
      H336          H  0.1596468  0.5461931  0.3365096    0.00000       Uiso       1.00
       B10          B  0.2915046  0.5345229  0.4129722    0.00000       Uiso       1.00
       B11          B  0.0508033  0.5345438  0.1724416    0.00000       Uiso       1.00
       B12          B  0.0509669  0.5345179  0.4131245    0.00000       Uiso       1.00
       B13          B  0.5868630  0.9993637  0.7092270    0.00000       Uiso       1.00
       B14          B  0.5868630  0.9993637  0.8770664    0.00000       Uiso       1.00
       B15          B  0.7547023  0.9993637  0.8770664    0.00000       Uiso       1.00
      C415          C  0.6180590  0.0012304  0.7976698    0.00000       Uiso       1.00
      C416          C  0.5951623  0.0007470  0.7500949    0.00000       Uiso       1.00
      H337          H  0.5752777  0.0011392  0.7712709    0.00000       Uiso       1.00
       O25          O  0.5739154  0.9999182  0.7250414    0.00000       Uiso       1.00
      C417          C  0.5944727  0.0010378  0.7732046    0.00000       Uiso       1.00
      C418          C  0.6422437  0.0012305  0.8458703    0.00000       Uiso       1.00
      C419          C  0.6180489  0.0007471  0.8687670    0.00000       Uiso       1.00
      H338          H  0.6587173  0.0011392  0.8886516    0.00000       Uiso       1.00
       O26          O  0.6150706  0.9999181  0.8900140    0.00000       Uiso       1.00
      C420          C  0.6415575  0.0010378  0.8694566    0.00000       Uiso       1.00
      C421          C  0.6662594  0.0012305  0.8216856    0.00000       Uiso       1.00
      C422          C  0.7138344  0.0007470  0.8458804    0.00000       Uiso       1.00
      H339          H  0.6926584  0.0011392  0.8052120    0.00000       Uiso       1.00
       O27          O  0.7388880  0.9999181  0.8488587    0.00000       Uiso       1.00
      C423          C  0.6907247  0.0010378  0.8223718    0.00000       Uiso       1.00
      C424          C  0.6180590  0.0012305  0.8216856    0.00000       Uiso       1.00
      C425          C  0.5951623  0.0007470  0.8458804    0.00000       Uiso       1.00
       O28          O  0.5739153  0.9999181  0.8488587    0.00000       Uiso       1.00
      H340          H  0.5752777  0.0011392  0.8052120    0.00000       Uiso       1.00
      C426          C  0.5944727  0.0010378  0.8223718    0.00000       Uiso       1.00
      C427          C  0.6422437  0.0012304  0.7976698    0.00000       Uiso       1.00
      C428          C  0.6180489  0.0007470  0.7500949    0.00000       Uiso       1.00
      H341          H  0.6587173  0.0011392  0.7712709    0.00000       Uiso       1.00
       O29          O  0.6150706  0.9999182  0.7250414    0.00000       Uiso       1.00
      C429          C  0.6415575  0.0010378  0.7732046    0.00000       Uiso       1.00
      C430          C  0.6662595  0.0012305  0.8458703    0.00000       Uiso       1.00
      C431          C  0.7138344  0.0007471  0.8687670    0.00000       Uiso       1.00
      H342          H  0.6926584  0.0011392  0.8886516    0.00000       Uiso       1.00
       O30          O  0.7388880  0.9999181  0.8900140    0.00000       Uiso       1.00
      C432          C  0.6907247  0.0010378  0.8694566    0.00000       Uiso       1.00
      C433          C  0.2499238  0.0815552  0.9264535    0.00000       Uiso       1.00
      C434          C  0.2262842  0.1050224  0.9250394    0.00000       Uiso       1.00
      C435          C  0.2255327  0.1275460  0.9222909    0.00000       Uiso       1.00
      C436          C  0.2021687  0.1514128  0.9223031    0.00000       Uiso       1.00
      C437          C  0.1795703  0.1539163  0.9266309    0.00000       Uiso       1.00
      C438          C  0.1809450  0.1311126  0.9297768    0.00000       Uiso       1.00
      C439          C  0.2030335  0.1059425  0.9270713    0.00000       Uiso       1.00
       O31          O  0.2747121  0.0777895  0.9258608    0.00000       Uiso       1.00
      H343          H  0.2431777  0.1265425  0.9201062    0.00000       Uiso       1.00
      H344          H  0.2022696  0.1678390  0.9191951    0.00000       Uiso       1.00
      H345          H  0.1655862  0.1334791  0.9361155    0.00000       Uiso       1.00
      C440          C  0.0815497  0.0588083  0.9263809    0.00000       Uiso       1.00
      C441          C  0.1050109  0.0575635  0.9249503    0.00000       Uiso       1.00
      C442          C  0.1275432  0.0330484  0.9222155    0.00000       Uiso       1.00
      C443          C  0.1514108  0.0325650  0.9222358    0.00000       Uiso       1.00
      C444          C  0.1539105  0.0569901  0.9265652    0.00000       Uiso       1.00
      C445          C  0.1310906  0.0815559  0.9296838    0.00000       Uiso       1.00
      C446          C  0.1059199  0.0819228  0.9269668    0.00000       Uiso       1.00
       O32          O  0.0778038  0.0371999  0.9258255    0.00000       Uiso       1.00
      H346          H  0.1265545  0.0142235  0.9200489    0.00000       Uiso       1.00
      H347          H  0.1678429  0.0129331  0.9191414    0.00000       Uiso       1.00
      H348          H  0.1334411  0.1008921  0.9360205    0.00000       Uiso       1.00
      C447          C  0.0588470  0.2498753  0.9264059    0.00000       Uiso       1.00
      C448          C  0.0575964  0.2262244  0.9249540    0.00000       Uiso       1.00
      C449          C  0.0330684  0.2254682  0.9221808    0.00000       Uiso       1.00
      C450          C  0.0325673  0.2020951  0.9221668    0.00000       Uiso       1.00
      C451          C  0.0569880  0.1794932  0.9264922    0.00000       Uiso       1.00
      C452          C  0.0815691  0.1808685  0.9296479    0.00000       Uiso       1.00
      C453          C  0.0819558  0.2029723  0.9269778    0.00000       Uiso       1.00
       O33          O  0.0372300  0.2746619  0.9258180    0.00000       Uiso       1.00
      H349          H  0.0142499  0.2431254  0.9200112    0.00000       Uiso       1.00
      H350          H  0.0129288  0.2021966  0.9190521    0.00000       Uiso       1.00
      H351          H  0.1008987  0.1655035  0.9359769    0.00000       Uiso       1.00
      C454          C  0.0829940  0.2509987  0.9299819    0.00000       Uiso       1.00
      C455          C  0.1071576  0.2280089  0.9306372    0.00000       Uiso       1.00
      C456          C  0.1316364  0.2290529  0.9336311    0.00000       Uiso       1.00
      C457          C  0.1553231  0.2055116  0.9331895    0.00000       Uiso       1.00
      C458          C  0.1546306  0.1799216  0.9281483    0.00000       Uiso       1.00
      C459          C  0.1295519  0.1792066  0.9245605    0.00000       Uiso       1.00
      C460          C  0.1063887  0.2032138  0.9277698    0.00000       Uiso       1.00
       O34          O  0.0801006  0.2766062  0.9320205    0.00000       Uiso       1.00
      H352          H  0.1323498  0.2482689  0.9364235    0.00000       Uiso       1.00
      H353          H  0.1739518  0.2076657  0.9366076    0.00000       Uiso       1.00
      H354          H  0.1274475  0.1596045  0.9176343    0.00000       Uiso       1.00
      C461          C  0.0598338  0.0829462  0.9299096    0.00000       Uiso       1.00
      C462          C  0.0593076  0.1071015  0.9305393    0.00000       Uiso       1.00
      C463          C  0.0367549  0.1315679  0.9334739    0.00000       Uiso       1.00
      C464          C  0.0361670  0.1552449  0.9330139    0.00000       Uiso       1.00
      C465          C  0.0574361  0.1545590  0.9280189    0.00000       Uiso       1.00
      C466          C  0.0796632  0.1294906  0.9244866    0.00000       Uiso       1.00
      C467          C  0.0820220  0.1063391  0.9277096    0.00000       Uiso       1.00
       O35          O  0.0391544  0.0800521  0.9319400    0.00000       Uiso       1.00
      H355          H  0.0196037  0.1322833  0.9362466    0.00000       Uiso       1.00
      H356          H  0.0187808  0.1738631  0.9363908    0.00000       Uiso       1.00
      H357          H  0.0944658  0.1273727  0.9175805    0.00000       Uiso       1.00
      C468          C  0.2510273  0.0598416  0.9299851    0.00000       Uiso       1.00
      C469          C  0.2280328  0.0593271  0.9306328    0.00000       Uiso       1.00
      C470          C  0.2290546  0.0367709  0.9335596    0.00000       Uiso       1.00
      C471          C  0.2055068  0.0361772  0.9330956    0.00000       Uiso       1.00
      C472          C  0.1799280  0.0574538  0.9281150    0.00000       Uiso       1.00
      C473          C  0.1792389  0.0796940  0.9246023    0.00000       Uiso       1.00
      C474          C  0.2032554  0.0820486  0.9278188    0.00000       Uiso       1.00
       O36          O  0.2766196  0.0391452  0.9319851    0.00000       Uiso       1.00
      H358          H  0.2482647  0.0196179  0.9363214    0.00000       Uiso       1.00
      H359          H  0.2076538  0.0187792  0.9364547    0.00000       Uiso       1.00
      H360          H  0.1596468  0.0945068  0.9177101    0.00000       Uiso       1.00
       B16          B  0.2915046  0.0507818  0.9293802    0.00000       Uiso       1.00
       B17          B  0.0508033  0.0509316  0.9293593    0.00000       Uiso       1.00
       B18          B  0.0509669  0.2914768  0.9293852    0.00000       Uiso       1.00
       B19          B  0.9993900  0.7546760  0.8770664    0.00000       Uiso       1.00
       B20          B  0.9993899  0.5868368  0.8770664    0.00000       Uiso       1.00
       B21          B  0.9993899  0.5868368  0.7092270    0.00000       Uiso       1.00
      C475          C  0.0012567  0.6662332  0.8458703    0.00000       Uiso       1.00
      C476          C  0.0007733  0.7138082  0.8687670    0.00000       Uiso       1.00
      H361          H  0.0011654  0.6926322  0.8886516    0.00000       Uiso       1.00
       O37          O  0.9999444  0.7388617  0.8900140    0.00000       Uiso       1.00
      C477          C  0.0010640  0.6906984  0.8694566    0.00000       Uiso       1.00
      C478          C  0.0012567  0.6180328  0.8216856    0.00000       Uiso       1.00
      C479          C  0.0007733  0.5951361  0.8458804    0.00000       Uiso       1.00
      H362          H  0.0011654  0.5752515  0.8052120    0.00000       Uiso       1.00
       O38          O  0.9999444  0.5738891  0.8488587    0.00000       Uiso       1.00
      C480          C  0.0010640  0.5944465  0.8223718    0.00000       Uiso       1.00
      C481          C  0.0012567  0.6422175  0.7976698    0.00000       Uiso       1.00
      C482          C  0.0007733  0.6180227  0.7500949    0.00000       Uiso       1.00
      H363          H  0.0011654  0.6586911  0.7712709    0.00000       Uiso       1.00
       O39          O  0.9999444  0.6150444  0.7250414    0.00000       Uiso       1.00
      C483          C  0.0010640  0.6415312  0.7732046    0.00000       Uiso       1.00
      C484          C  0.0012567  0.6422175  0.8458703    0.00000       Uiso       1.00
      C485          C  0.0007733  0.6180227  0.8687670    0.00000       Uiso       1.00
       O40          O  0.9999444  0.6150444  0.8900140    0.00000       Uiso       1.00
      H364          H  0.0011654  0.6586911  0.8886516    0.00000       Uiso       1.00
      C486          C  0.0010640  0.6415312  0.8694566    0.00000       Uiso       1.00
      C487          C  0.0012567  0.6662332  0.8216856    0.00000       Uiso       1.00
      C488          C  0.0007733  0.7138082  0.8458804    0.00000       Uiso       1.00
      H365          H  0.0011654  0.6926322  0.8052120    0.00000       Uiso       1.00
       O41          O  0.9999443  0.7388617  0.8488587    0.00000       Uiso       1.00
      C489          C  0.0010640  0.6906985  0.8223718    0.00000       Uiso       1.00
      C490          C  0.0012567  0.6180328  0.7976698    0.00000       Uiso       1.00
      C491          C  0.0007733  0.5951360  0.7500949    0.00000       Uiso       1.00
      H366          H  0.0011654  0.5752515  0.7712709    0.00000       Uiso       1.00
       O42          O  0.9999444  0.5738891  0.7250414    0.00000       Uiso       1.00
      C492          C  0.0010640  0.5944465  0.7732046    0.00000       Uiso       1.00
      C493          C  0.0815815  0.2498976  0.4050914    0.00000       Uiso       1.00
      C494          C  0.1050487  0.2262579  0.4063332    0.00000       Uiso       1.00
      C495          C  0.1275723  0.2255064  0.4308538    0.00000       Uiso       1.00
      C496          C  0.1514390  0.2021425  0.4313443    0.00000       Uiso       1.00
      C497          C  0.1539425  0.1795440  0.4069216    0.00000       Uiso       1.00
      C498          C  0.1311388  0.1809188  0.3823469    0.00000       Uiso       1.00
      C499          C  0.1059688  0.2030073  0.3819708    0.00000       Uiso       1.00
       O43          O  0.0778158  0.2746859  0.4267068    0.00000       Uiso       1.00
      H367          H  0.1265687  0.2431515  0.4496800    0.00000       Uiso       1.00
      H368          H  0.1678652  0.2022434  0.4509795    0.00000       Uiso       1.00
      H369          H  0.1335053  0.1655600  0.3630158    0.00000       Uiso       1.00
      C500          C  0.0588345  0.0815235  0.2140431    0.00000       Uiso       1.00
      C501          C  0.0575897  0.1049846  0.2376900    0.00000       Uiso       1.00
      C502          C  0.0330746  0.1275170  0.2384422    0.00000       Uiso       1.00
      C503          C  0.0325913  0.1513846  0.2618060    0.00000       Uiso       1.00
      C504          C  0.0570164  0.1538842  0.2844014    0.00000       Uiso       1.00
      C505          C  0.0815821  0.1310643  0.2830286    0.00000       Uiso       1.00
      C506          C  0.0819491  0.1058937  0.2609419    0.00000       Uiso       1.00
       O44          O  0.0372261  0.0777776  0.1892442    0.00000       Uiso       1.00
      H370          H  0.0142498  0.1265283  0.2207951    0.00000       Uiso       1.00
      H371          H  0.0129593  0.1678167  0.2617006    0.00000       Uiso       1.00
      H372          H  0.1009184  0.1334148  0.2983786    0.00000       Uiso       1.00
      C507          C  0.2499015  0.0588207  0.3823823    0.00000       Uiso       1.00
      C508          C  0.2262506  0.0575701  0.3589327    0.00000       Uiso       1.00
      C509          C  0.2254944  0.0330421  0.3364218    0.00000       Uiso       1.00
      C510          C  0.2021214  0.0325410  0.3125616    0.00000       Uiso       1.00
      C511          C  0.1795194  0.0569617  0.3100550    0.00000       Uiso       1.00
      C512          C  0.1808947  0.0815429  0.3328556    0.00000       Uiso       1.00
      C513          C  0.2029986  0.0819296  0.3580164    0.00000       Uiso       1.00
       O45          O  0.2746881  0.0372038  0.3861399    0.00000       Uiso       1.00
      H373          H  0.2431516  0.0142237  0.3374301    0.00000       Uiso       1.00
      H374          H  0.2022229  0.0129026  0.2961392    0.00000       Uiso       1.00
      H375          H  0.1655298  0.1008724  0.3304912    0.00000       Uiso       1.00
      C514          C  0.2510250  0.0829677  0.4040767    0.00000       Uiso       1.00
      C515          C  0.2280351  0.1071313  0.4045953    0.00000       Uiso       1.00
      C516          C  0.2290792  0.1316101  0.4271241    0.00000       Uiso       1.00
      C517          C  0.2055378  0.1552968  0.4277112    0.00000       Uiso       1.00
      C518          C  0.1799478  0.1546043  0.4064698    0.00000       Uiso       1.00
      C519          C  0.1792328  0.1295257  0.3842639    0.00000       Uiso       1.00
      C520          C  0.2032400  0.1063624  0.3818986    0.00000       Uiso       1.00
       O46          O  0.2766324  0.0800744  0.4247522    0.00000       Uiso       1.00
      H376          H  0.2482951  0.1323235  0.4442611    0.00000       Uiso       1.00
      H377          H  0.2076919  0.1739255  0.4450758    0.00000       Uiso       1.00
      H378          H  0.1596307  0.1274213  0.3694836    0.00000       Uiso       1.00
      C521          C  0.0829724  0.0598076  0.2129362    0.00000       Uiso       1.00
      C522          C  0.1071277  0.0592813  0.2359358    0.00000       Uiso       1.00
      C523          C  0.1315942  0.0367287  0.2349149    0.00000       Uiso       1.00
      C524          C  0.1552711  0.0361408  0.2584640    0.00000       Uiso       1.00
      C525          C  0.1545853  0.0574099  0.2840422    0.00000       Uiso       1.00
      C526          C  0.1295168  0.0796370  0.2847331    0.00000       Uiso       1.00
      C527          C  0.1063653  0.0819957  0.2607174    0.00000       Uiso       1.00
       O47          O  0.0800784  0.0391282  0.1873326    0.00000       Uiso       1.00
      H379          H  0.1323095  0.0195775  0.2157064    0.00000       Uiso       1.00
      H380          H  0.1738893  0.0187546  0.2563191    0.00000       Uiso       1.00
      H381          H  0.1273989  0.0944396  0.3043239    0.00000       Uiso       1.00
      C528          C  0.0598678  0.2510011  0.3809498    0.00000       Uiso       1.00
      C529          C  0.0593533  0.2280066  0.3567930    0.00000       Uiso       1.00
      C530          C  0.0367972  0.2290283  0.3323319    0.00000       Uiso       1.00
      C531          C  0.0362035  0.2054805  0.3086544    0.00000       Uiso       1.00
      C532          C  0.0574801  0.1799018  0.3093328    0.00000       Uiso       1.00
      C533          C  0.0797202  0.1792127  0.3343966    0.00000       Uiso       1.00
      C534          C  0.0820748  0.2032292  0.3575512    0.00000       Uiso       1.00
       O48          O  0.0391714  0.2765934  0.3838456    0.00000       Uiso       1.00
      H382          H  0.0196441  0.2482385  0.3316272    0.00000       Uiso       1.00
      H383          H  0.0188054  0.2076276  0.2900443    0.00000       Uiso       1.00
      H384          H  0.0945331  0.1596206  0.3365096    0.00000       Uiso       1.00
       B22          B  0.0508080  0.2914784  0.4129722    0.00000       Uiso       1.00
       B23          B  0.0509579  0.0507771  0.1724416    0.00000       Uiso       1.00
       B24          B  0.2915030  0.0509407  0.4131245    0.00000       Uiso       1.00
