data_49
_audit_creation_date              0000-00-00
_audit_creation_method            'LanYouShi'
_symmetry_space_group_name_H-M    'P1'
_cell_length_a                    59.4053993
_cell_length_b                    59.4054985
_cell_length_c                    59.4054985
_cell_angle_alpha                 119.9999008
_cell_angle_beta                  120.0000000
_cell_angle_gamma                 60.0000000
loop_
_atom_site_label
_atom_site_type_symbol
_atom_site_fract_x
_atom_site_fract_y
_atom_site_fract_z
_atom_site_U_iso_or_equiv
_atom_site_adp_type
_atom_site_occupancy
        C1          C  0.3222430  0.5323939  0.4273184    0.00000       Uiso       1.00
        C2          C  0.3365598  0.5303689  0.4131842    0.00000       Uiso       1.00
        C3          C  0.3648081  0.5262919  0.4252529    0.00000       Uiso       1.00
        C4          C  0.3365598  0.5303688  0.4537444    0.00000       Uiso       1.00
        C5          C  0.3648081  0.5262918  0.4658469    0.00000       Uiso       1.00
        C6          C  0.3795609  0.5251560  0.4523585    0.00000       Uiso       1.00
        H1          H  0.5143221  0.5870509  0.6247791    0.00000       Uiso       1.00
        H2          H  0.3251929  0.5320434  0.4655947    0.00000       Uiso       1.00
        H3          H  0.3251929  0.5320436  0.3916416    0.00000       Uiso       1.00
        C7          C  0.5726812  0.5726804  0.4676050    0.00000       Uiso       1.00
        C8          C  0.5462552  0.5868146  0.4696299    0.00000       Uiso       1.00
        C9          C  0.5341527  0.5747458  0.4737068    0.00000       Uiso       1.00
       C10          C  0.5868155  0.5462543  0.4696299    0.00000       Uiso       1.00
       C11          C  0.5747468  0.5341519  0.4737069    0.00000       Uiso       1.00
       C12          C  0.5476413  0.5476403  0.4748427    0.00000       Uiso       1.00
        H4          H  0.3752203  0.5234050  0.4129476    0.00000       Uiso       1.00
        H5          H  0.6083582  0.5344040  0.4679554    0.00000       Uiso       1.00
        H6          H  0.5344049  0.6083571  0.4679553    0.00000       Uiso       1.00
       C13          C  0.5726812  0.5726799  0.6777562    0.00000       Uiso       1.00
       C14          C  0.5868156  0.5462539  0.6634396    0.00000       Uiso       1.00
       C15          C  0.5747468  0.5341514  0.6351913    0.00000       Uiso       1.00
       C16          C  0.5462552  0.5868142  0.6634395    0.00000       Uiso       1.00
       C17          C  0.5341527  0.5747455  0.6351913    0.00000       Uiso       1.00
       C18          C  0.5476413  0.5476400  0.6204385    0.00000       Uiso       1.00
        H7          H  0.5234060  0.3752195  0.4856776    0.00000       Uiso       1.00
        H8          H  0.5344048  0.6083567  0.6748063    0.00000       Uiso       1.00
        H9          H  0.6083582  0.5344036  0.6748065    0.00000       Uiso       1.00
       C19          C  0.5323951  0.3222424  0.4273186    0.00000       Uiso       1.00
       C20          C  0.5303701  0.3365592  0.4537446    0.00000       Uiso       1.00
       C21          C  0.5262931  0.3648073  0.4658471    0.00000       Uiso       1.00
       C22          C  0.5303701  0.3365593  0.4131844    0.00000       Uiso       1.00
       C23          C  0.5262930  0.3648074  0.4252531    0.00000       Uiso       1.00
       C24          C  0.5251572  0.3795603  0.4523586    0.00000       Uiso       1.00
       H10          H  0.5870522  0.5143213  0.4765939    0.00000       Uiso       1.00
       C25          C  0.5000001  0.4999992  0.4999994    0.00000       Uiso       1.00
       H11          H  0.5320447  0.3251924  0.3916419    0.00000       Uiso       1.00
       H12          H  0.5320447  0.3251922  0.4655949    0.00000       Uiso       1.00
        N1          N  0.3793616  0.5222565  0.4935649    0.00000       Uiso       1.00
        O1          O  0.4038159  0.5186562  0.5048290    0.00000       Uiso       1.00
        O2          O  0.3665723  0.5226222  0.5045121    0.00000       Uiso       1.00
        N2          N  0.5222577  0.3793610  0.4080534    0.00000       Uiso       1.00
        O3          O  0.5186574  0.4038152  0.4176431    0.00000       Uiso       1.00
        O4          O  0.5226235  0.3665718  0.3846826    0.00000       Uiso       1.00
        N3          N  0.5064347  0.5919455  0.4777421    0.00000       Uiso       1.00
        O5          O  0.4951705  0.5823558  0.4813424    0.00000       Uiso       1.00
        O6          O  0.4954869  0.6153159  0.4773751    0.00000       Uiso       1.00
        N4          N  0.5919466  0.5064335  0.6206378    0.00000       Uiso       1.00
        O7          O  0.5823569  0.4951694  0.5961837    0.00000       Uiso       1.00
        O8          O  0.6153171  0.4954857  0.6334274    0.00000       Uiso       1.00
       C26          C  0.4099005  0.5199850  0.4651126    0.00000       Uiso       1.00
       C27          C  0.4225151  0.5303307  0.4594374    0.00000       Uiso       1.00
       C28          C  0.4510876  0.5247796  0.4708013    0.00000       Uiso       1.00
       C29          C  0.4266356  0.5042089  0.4827753    0.00000       Uiso       1.00
       C30          C  0.4550021  0.4991851  0.4945949    0.00000       Uiso       1.00
       C31          C  0.4679782  0.5093567  0.4890066    0.00000       Uiso       1.00
       H13          H  0.4923131  0.5539585  0.5134978    0.00000       Uiso       1.00
       H14          H  0.4727286  0.5355101  0.5403572    0.00000       Uiso       1.00
       H15          H  0.4180716  0.4948879  0.4869172    0.00000       Uiso       1.00
       H16          H  0.4102937  0.5426320  0.4459993    0.00000       Uiso       1.00
       C32          C  0.5348886  0.5352256  0.4800147    0.00000       Uiso       1.00
       C33          C  0.5172318  0.5519288  0.4957963    0.00000       Uiso       1.00
       C34          C  0.5054085  0.5404072  0.5008178    0.00000       Uiso       1.00
       C35          C  0.5405591  0.5065909  0.4696642    0.00000       Uiso       1.00
       C36          C  0.5291955  0.4949341  0.4752165    0.00000       Uiso       1.00
       C37          C  0.5109932  0.5116715  0.4906428    0.00000       Uiso       1.00
       H17          H  0.4596429  0.5321156  0.4644872    0.00000       Uiso       1.00
       H18          H  0.4865046  0.4672254  0.4460409    0.00000       Uiso       1.00
       H19          H  0.5539905  0.4930731  0.4573558    0.00000       Uiso       1.00
       H20          H  0.5130970  0.5739544  0.5051205    0.00000       Uiso       1.00
       C38          C  0.5352261  0.5348877  0.5900989    0.00000       Uiso       1.00
       C39          C  0.5519297  0.5172268  0.5733638    0.00000       Uiso       1.00
       C40          C  0.5404078  0.5054049  0.5449973    0.00000       Uiso       1.00
       C41          C  0.5065904  0.5405627  0.5774842    0.00000       Uiso       1.00
       C42          C  0.4949341  0.5291983  0.5489119    0.00000       Uiso       1.00
       C43          C  0.5116718  0.5109925  0.5320212    0.00000       Uiso       1.00
       H21          H  0.5321180  0.4596407  0.5272712    0.00000       Uiso       1.00
       H22          H  0.4672269  0.4865044  0.5076900    0.00000       Uiso       1.00
       H23          H  0.4930705  0.5539980  0.5897039    0.00000       Uiso       1.00
       H24          H  0.5739565  0.5130858  0.5819306    0.00000       Uiso       1.00
       C44          C  0.5199856  0.4098997  0.4647738    0.00000       Uiso       1.00
       C45          C  0.5303324  0.4225141  0.4934092    0.00000       Uiso       1.00
       C46          C  0.5247805  0.4510865  0.5050657    0.00000       Uiso       1.00
       C47          C  0.5042068  0.4266349  0.4480705    0.00000       Uiso       1.00
       C48          C  0.4991843  0.4550011  0.4595922    0.00000       Uiso       1.00
       C49          C  0.5093573  0.4679770  0.4883279    0.00000       Uiso       1.00
       H25          H  0.5539587  0.4923070  0.5327728    0.00000       Uiso       1.00
       H26          H  0.5355050  0.4727288  0.4678759    0.00000       Uiso       1.00
       H27          H  0.4948856  0.4180683  0.4260442    0.00000       Uiso       1.00
       H28          H  0.5426366  0.4102941  0.5069286    0.00000       Uiso       1.00
       C50          C  0.5323942  0.0365144  0.1415904    0.00000       Uiso       1.00
       C51          C  0.5303692  0.0506487  0.1272736    0.00000       Uiso       1.00
       C52          C  0.5262922  0.0385800  0.0990254    0.00000       Uiso       1.00
       C53          C  0.5303692  0.0100884  0.1272736    0.00000       Uiso       1.00
       C54          C  0.5262915  0.9979856  0.0990254    0.00000       Uiso       1.00
       C55          C  0.5251563  0.0114745  0.0842726    0.00000       Uiso       1.00
       H29          H  0.5870520  0.8390527  0.9495111    0.00000       Uiso       1.00
       H30          H  0.5320431  0.9982377  0.1386405    0.00000       Uiso       1.00
       H31          H  0.5320438  0.0721912  0.1386405    0.00000       Uiso       1.00
       C56          C  0.5726810  0.9962273  0.8911521    0.00000       Uiso       1.00
       C57          C  0.5868152  0.9942022  0.9175782    0.00000       Uiso       1.00
       C58          C  0.5747465  0.9901252  0.9296806    0.00000       Uiso       1.00
       C59          C  0.5462549  0.9942023  0.8770179    0.00000       Uiso       1.00
       C60          C  0.5341524  0.9901252  0.8890865    0.00000       Uiso       1.00
       C61          C  0.5476409  0.9889894  0.9161921    0.00000       Uiso       1.00
       H32          H  0.5234051  0.0508854  0.0886133    0.00000       Uiso       1.00
       H33          H  0.5344046  0.9958769  0.8554753    0.00000       Uiso       1.00
       H34          H  0.6083578  0.9958768  0.9294285    0.00000       Uiso       1.00
       C62          C  0.5726811  0.7860756  0.8911521    0.00000       Uiso       1.00
       C63          C  0.5462551  0.8003924  0.8770179    0.00000       Uiso       1.00
       C64          C  0.5341525  0.8286405  0.8890865    0.00000       Uiso       1.00
       C65          C  0.5868154  0.8003923  0.9175782    0.00000       Uiso       1.00
       C66          C  0.5747467  0.8286405  0.9296806    0.00000       Uiso       1.00
       C67          C  0.5476410  0.8433934  0.9161921    0.00000       Uiso       1.00
       H35          H  0.3752199  0.9781542  0.9404271    0.00000       Uiso       1.00
       H36          H  0.6083580  0.7890254  0.9294285    0.00000       Uiso       1.00
       H37          H  0.5344047  0.7890255  0.8554753    0.00000       Uiso       1.00
       C68          C  0.3222434  0.0365135  0.9314381    0.00000       Uiso       1.00
       C69          C  0.3365602  0.0100875  0.9334632    0.00000       Uiso       1.00
       C70          C  0.3648077  0.9979846  0.9375401    0.00000       Uiso       1.00
       C71          C  0.3365602  0.0506478  0.9334632    0.00000       Uiso       1.00
       C72          C  0.3648084  0.0385791  0.9375401    0.00000       Uiso       1.00
       C73          C  0.3795613  0.0114735  0.9386760    0.00000       Uiso       1.00
       H38          H  0.5143218  0.9872383  0.8767812    0.00000       Uiso       1.00
       C74          C  0.4999999  0.9638324  0.9638330    0.00000       Uiso       1.00
       H39          H  0.3251933  0.0721904  0.9317886    0.00000       Uiso       1.00
       H40          H  0.3251925  0.9982369  0.9317886    0.00000       Uiso       1.00
        N5          N  0.5222562  0.9702677  0.0844719    0.00000       Uiso       1.00
        O9          O  0.5186559  0.9590035  0.0600177    0.00000       Uiso       1.00
       O10          O  0.5226220  0.9593204  0.0972612    0.00000       Uiso       1.00
        N6          N  0.3793620  0.0557788  0.9415755    0.00000       Uiso       1.00
       O11          O  0.4038163  0.0461891  0.9451758    0.00000       Uiso       1.00
       O12          O  0.3665726  0.0791496  0.9412097    0.00000       Uiso       1.00
        N7          N  0.5919462  0.9860899  0.9573985    0.00000       Uiso       1.00
       O13          O  0.5823565  0.9824895  0.9686627    0.00000       Uiso       1.00
       O14          O  0.6153167  0.9864568  0.9683464    0.00000       Uiso       1.00
        N8          N  0.5064345  0.8431941  0.8718869    0.00000       Uiso       1.00
       O15          O  0.4951703  0.8676483  0.8814766    0.00000       Uiso       1.00
       O16          O  0.4954866  0.8304046  0.8485164    0.00000       Uiso       1.00
       C75          C  0.5199845  0.9987202  0.0539331    0.00000       Uiso       1.00
       C76          C  0.5303310  0.0043957  0.0413186    0.00000       Uiso       1.00
       C77          C  0.5247791  0.9930316  0.0127461    0.00000       Uiso       1.00
       C78          C  0.5042084  0.9810575  0.0371980    0.00000       Uiso       1.00
       C79          C  0.4991846  0.9692379  0.0088317    0.00000       Uiso       1.00
       C80          C  0.5093573  0.9748251  0.9958549    0.00000       Uiso       1.00
       H41          H  0.5539593  0.9503341  0.9715201    0.00000       Uiso       1.00
       H42          H  0.5355109  0.9234744  0.9911044    0.00000       Uiso       1.00
       H43          H  0.4948875  0.9769155  0.0457620    0.00000       Uiso       1.00
       H44          H  0.5426323  0.0178338  0.0535400    0.00000       Uiso       1.00
       C81          C  0.5352262  0.9838174  0.9289448    0.00000       Uiso       1.00
       C82          C  0.5519295  0.9680357  0.9466015    0.00000       Uiso       1.00
       C83          C  0.5404080  0.9630141  0.9584247    0.00000       Uiso       1.00
       C84          C  0.5065914  0.9941678  0.9232742    0.00000       Uiso       1.00
       C85          C  0.4949346  0.9886154  0.9346377    0.00000       Uiso       1.00
       C86          C  0.5116721  0.9731891  0.9528400    0.00000       Uiso       1.00
       H45          H  0.5321150  0.9993457  0.0041909    0.00000       Uiso       1.00
       H46          H  0.4672267  0.0177912  0.9773286    0.00000       Uiso       1.00
       H47          H  0.4930743  0.0064765  0.9098427    0.00000       Uiso       1.00
       H48          H  0.5739551  0.9587114  0.9507363    0.00000       Uiso       1.00
       C87          C  0.5348886  0.8737329  0.9286072    0.00000       Uiso       1.00
       C88          C  0.5172276  0.8904681  0.9119037    0.00000       Uiso       1.00
       C89          C  0.5054057  0.9188345  0.9234256    0.00000       Uiso       1.00
       C90          C  0.5405636  0.8863476  0.9572428    0.00000       Uiso       1.00
       C91          C  0.5291991  0.9149199  0.9688992    0.00000       Uiso       1.00
       C92          C  0.5109932  0.9318106  0.9521614    0.00000       Uiso       1.00
       H49          H  0.4596414  0.9365607  0.9317153    0.00000       Uiso       1.00
       H50          H  0.4865051  0.9561417  0.9966062    0.00000       Uiso       1.00
       H51          H  0.5539990  0.8741278  0.9707627    0.00000       Uiso       1.00
       H52          H  0.5130867  0.8819013  0.8898768    0.00000       Uiso       1.00
       C93          C  0.4099002  0.9990579  0.9438477    0.00000       Uiso       1.00
       C94          C  0.4225147  0.9704226  0.9335009    0.00000       Uiso       1.00
       C95          C  0.4510871  0.9587661  0.9390528    0.00000       Uiso       1.00
       C96          C  0.4266360  0.0157616  0.9596263    0.00000       Uiso       1.00
       C97          C  0.4550023  0.0042399  0.9646489    0.00000       Uiso       1.00
       C98          C  0.4679776  0.9755039  0.9544758    0.00000       Uiso       1.00
       H53          H  0.4923077  0.9310591  0.9098747    0.00000       Uiso       1.00
       H54          H  0.4727293  0.9959560  0.9283283    0.00000       Uiso       1.00
       H55          H  0.4180694  0.0377879  0.9689475    0.00000       Uiso       1.00
       H56          H  0.4102946  0.9569033  0.9211966    0.00000       Uiso       1.00
       C99          C  0.0365164  0.3222419  0.9314390    0.00000       Uiso       1.00
      C100          C  0.0506506  0.3365587  0.9334639    0.00000       Uiso       1.00
      C101          C  0.0385819  0.3648069  0.9375409    0.00000       Uiso       1.00
      C102          C  0.0100903  0.3365586  0.9334639    0.00000       Uiso       1.00
      C103          C  0.9979876  0.3648068  0.9375408    0.00000       Uiso       1.00
      C104          C  0.0114763  0.3795597  0.9386767    0.00000       Uiso       1.00
       H57          H  0.8390551  0.5143207  0.8767816    0.00000       Uiso       1.00
       H58          H  0.9982398  0.3251917  0.9317893    0.00000       Uiso       1.00
       H59          H  0.0721932  0.3251918  0.9317893    0.00000       Uiso       1.00
      C105          C  0.9962296  0.5726799  0.8911526    0.00000       Uiso       1.00
      C106          C  0.9942047  0.5462539  0.8770184    0.00000       Uiso       1.00
      C107          C  0.9901277  0.5341514  0.8890871    0.00000       Uiso       1.00
      C108          C  0.9942046  0.5868141  0.9175786    0.00000       Uiso       1.00
      C109          C  0.9901277  0.5747454  0.9296811    0.00000       Uiso       1.00
      C110          C  0.9889918  0.5476398  0.9161926    0.00000       Uiso       1.00
       H60          H  0.0508872  0.3752191  0.9404280    0.00000       Uiso       1.00
       H61          H  0.9958792  0.6083567  0.9294289    0.00000       Uiso       1.00
       H62          H  0.9958794  0.5344036  0.8554758    0.00000       Uiso       1.00
      C111          C  0.7860777  0.5726796  0.8911524    0.00000       Uiso       1.00
      C112          C  0.8003945  0.5868139  0.9175784    0.00000       Uiso       1.00
      C113          C  0.8286428  0.5747451  0.9296809    0.00000       Uiso       1.00
      C114          C  0.8003946  0.5462537  0.8770182    0.00000       Uiso       1.00
      C115          C  0.8286428  0.5341512  0.8890870    0.00000       Uiso       1.00
      C116          C  0.8433957  0.5476397  0.9161924    0.00000       Uiso       1.00
       H63          H  0.9781559  0.5234053  0.0886138    0.00000       Uiso       1.00
       H64          H  0.7890277  0.5344034  0.8554756    0.00000       Uiso       1.00
       H65          H  0.7890276  0.6083564  0.9294287    0.00000       Uiso       1.00
      C117          C  0.0365151  0.5323942  0.1415909    0.00000       Uiso       1.00
      C118          C  0.0100890  0.5303692  0.1272741    0.00000       Uiso       1.00
      C119          C  0.9979863  0.5262923  0.0990260    0.00000       Uiso       1.00
      C120          C  0.0506493  0.5303692  0.1272742    0.00000       Uiso       1.00
      C121          C  0.0385806  0.5262923  0.0990260    0.00000       Uiso       1.00
      C122          C  0.0114750  0.5251564  0.0842731    0.00000       Uiso       1.00
       H66          H  0.9872407  0.5870506  0.9495116    0.00000       Uiso       1.00
      C123          C  0.9638351  0.4999986  0.9638335    0.00000       Uiso       1.00
       H67          H  0.0721919  0.5320439  0.1386411    0.00000       Uiso       1.00
       H68          H  0.9982385  0.5320438  0.1386410    0.00000       Uiso       1.00
        N9          N  0.9702696  0.3793603  0.9415761    0.00000       Uiso       1.00
       O17          O  0.9590054  0.4038145  0.9451764    0.00000       Uiso       1.00
       O18          O  0.9593223  0.3665710  0.9412103    0.00000       Uiso       1.00
       N10          N  0.0557803  0.5222571  0.0844725    0.00000       Uiso       1.00
       O19          O  0.0461906  0.5186568  0.0600183    0.00000       Uiso       1.00
       O20          O  0.0791512  0.5226228  0.0972619    0.00000       Uiso       1.00
       N11          N  0.9860924  0.5064334  0.8718874    0.00000       Uiso       1.00
       O21          O  0.9824921  0.4951692  0.8814771    0.00000       Uiso       1.00
       O22          O  0.9864594  0.4954857  0.8485170    0.00000       Uiso       1.00
       N12          N  0.8431964  0.5919448  0.9573989    0.00000       Uiso       1.00
       O23          O  0.8676506  0.5823551  0.9686631    0.00000       Uiso       1.00
       O24          O  0.8304067  0.6153152  0.9683466    0.00000       Uiso       1.00
      C124          C  0.9987220  0.4098992  0.9438478    0.00000       Uiso       1.00
      C125          C  0.0043973  0.4225138  0.9335021    0.00000       Uiso       1.00
      C126          C  0.9930332  0.4510863  0.9390532    0.00000       Uiso       1.00
      C127          C  0.9810592  0.4266343  0.9596238    0.00000       Uiso       1.00
      C128          C  0.9692395  0.4550006  0.9646477    0.00000       Uiso       1.00
      C129          C  0.9748279  0.4679767  0.9544761    0.00000       Uiso       1.00
       H69          H  0.9503368  0.4923117  0.9098743    0.00000       Uiso       1.00
       H70          H  0.9234771  0.4727272  0.9283225    0.00000       Uiso       1.00
       H71          H  0.9769173  0.4180702  0.9689448    0.00000       Uiso       1.00
       H72          H  0.0178355  0.4102924  0.9212009    0.00000       Uiso       1.00
      C130          C  0.9838199  0.5348871  0.9286073    0.00000       Uiso       1.00
      C131          C  0.9680382  0.5172304  0.9119041    0.00000       Uiso       1.00
      C132          C  0.9630167  0.5054070  0.9234256    0.00000       Uiso       1.00
      C133          C  0.9941704  0.5405576  0.9572420    0.00000       Uiso       1.00
      C134          C  0.9886181  0.5291940  0.9688988    0.00000       Uiso       1.00
      C135          C  0.9731917  0.5109918  0.9521613    0.00000       Uiso       1.00
       H73          H  0.9993473  0.4596415  0.9317173    0.00000       Uiso       1.00
       H74          H  0.0177939  0.4865030  0.9966074    0.00000       Uiso       1.00
       H75          H  0.0064789  0.5539890  0.9707598    0.00000       Uiso       1.00
       H76          H  0.9587140  0.5130957  0.8898785    0.00000       Uiso       1.00
      C136          C  0.8737353  0.5352246  0.9289448    0.00000       Uiso       1.00
      C137          C  0.8904705  0.5519280  0.9466059    0.00000       Uiso       1.00
      C138          C  0.9188371  0.5404062  0.9584277    0.00000       Uiso       1.00
      C139          C  0.8863501  0.5065889  0.9232698    0.00000       Uiso       1.00
      C140          C  0.9149224  0.4949325  0.9346343    0.00000       Uiso       1.00
      C141          C  0.9318132  0.5116702  0.9528401    0.00000       Uiso       1.00
       H77          H  0.9365622  0.5321174  0.0041925    0.00000       Uiso       1.00
       H78          H  0.9561445  0.4672253  0.9773282    0.00000       Uiso       1.00
       H79          H  0.8741303  0.4930690  0.9098345    0.00000       Uiso       1.00
       H80          H  0.8819037  0.5739549  0.9507467    0.00000       Uiso       1.00
      C142          C  0.9990596  0.5199849  0.0539337    0.00000       Uiso       1.00
      C143          C  0.9704241  0.5303317  0.0413192    0.00000       Uiso       1.00
      C144          C  0.9587675  0.5247799  0.0127469    0.00000       Uiso       1.00
      C145          C  0.0157631  0.5042062  0.0371986    0.00000       Uiso       1.00
      C146          C  0.0042414  0.4991837  0.0088323    0.00000       Uiso       1.00
      C147          C  0.9755066  0.5093557  0.9958557    0.00000       Uiso       1.00
       H81          H  0.9310616  0.5539570  0.9715257    0.00000       Uiso       1.00
       H82          H  0.9959586  0.5355034  0.9911041    0.00000       Uiso       1.00
       H83          H  0.0377895  0.4948850  0.0457652    0.00000       Uiso       1.00
       H84          H  0.9569047  0.5426359  0.0535392    0.00000       Uiso       1.00
      C148          C  0.0365162  0.5323946  0.4273192    0.00000       Uiso       1.00
      C149          C  0.0506505  0.5303696  0.4537452    0.00000       Uiso       1.00
      C150          C  0.0385817  0.5262926  0.4658477    0.00000       Uiso       1.00
      C151          C  0.0100901  0.5303696  0.4131850    0.00000       Uiso       1.00
      C152          C  0.9979874  0.5262927  0.4252536    0.00000       Uiso       1.00
      C153          C  0.0114762  0.5251567  0.4523591    0.00000       Uiso       1.00
       H85          H  0.8390550  0.5870515  0.4765942    0.00000       Uiso       1.00
       H86          H  0.9982396  0.5320444  0.3916424    0.00000       Uiso       1.00
       H87          H  0.0721931  0.5320442  0.4655955    0.00000       Uiso       1.00
      C154          C  0.9962296  0.5726804  0.6777567    0.00000       Uiso       1.00
      C155          C  0.9942046  0.5868146  0.6634399    0.00000       Uiso       1.00
      C156          C  0.9901276  0.5747460  0.6351918    0.00000       Uiso       1.00
      C157          C  0.9942046  0.5462544  0.6634399    0.00000       Uiso       1.00
      C158          C  0.9901277  0.5341519  0.6351918    0.00000       Uiso       1.00
      C159          C  0.9889918  0.5476405  0.6204390    0.00000       Uiso       1.00
       H88          H  0.0508871  0.5234056  0.4856782    0.00000       Uiso       1.00
       H89          H  0.9958793  0.5344040  0.6748068    0.00000       Uiso       1.00
       H90          H  0.9958792  0.6083572  0.6748068    0.00000       Uiso       1.00
      C160          C  0.7860777  0.5726807  0.4676052    0.00000       Uiso       1.00
      C161          C  0.8003946  0.5462546  0.4696302    0.00000       Uiso       1.00
      C162          C  0.8286428  0.5341521  0.4737072    0.00000       Uiso       1.00
      C163          C  0.8003945  0.5868149  0.4696302    0.00000       Uiso       1.00
      C164          C  0.8286427  0.5747462  0.4737072    0.00000       Uiso       1.00
      C165          C  0.8433957  0.5476407  0.4748431    0.00000       Uiso       1.00
       H91          H  0.9781570  0.3752202  0.4129483    0.00000       Uiso       1.00
       H92          H  0.7890276  0.6083574  0.4679556    0.00000       Uiso       1.00
       H93          H  0.7890277  0.5344043  0.4679556    0.00000       Uiso       1.00
      C166          C  0.0365164  0.3222430  0.4273192    0.00000       Uiso       1.00
      C167          C  0.0100903  0.3365598  0.4131850    0.00000       Uiso       1.00
      C168          C  0.9979876  0.3648080  0.4252536    0.00000       Uiso       1.00
      C169          C  0.0506506  0.3365598  0.4537452    0.00000       Uiso       1.00
      C170          C  0.0385818  0.3648079  0.4658477    0.00000       Uiso       1.00
      C171          C  0.0114763  0.3795608  0.4523591    0.00000       Uiso       1.00
       H94          H  0.9872407  0.5143214  0.6247796    0.00000       Uiso       1.00
      C172          C  0.9638351  0.4999997  0.5000002    0.00000       Uiso       1.00
       H95          H  0.0721932  0.3251929  0.4655955    0.00000       Uiso       1.00
       H96          H  0.9982399  0.3251930  0.3916424    0.00000       Uiso       1.00
       N13          N  0.9702695  0.5222573  0.4080540    0.00000       Uiso       1.00
       O25          O  0.9590052  0.5186570  0.4176436    0.00000       Uiso       1.00
       O26          O  0.9593222  0.5226232  0.3846831    0.00000       Uiso       1.00
       N14          N  0.0557816  0.3793614  0.4935656    0.00000       Uiso       1.00
       O27          O  0.0461919  0.4038156  0.5048298    0.00000       Uiso       1.00
       O28          O  0.0791525  0.3665721  0.5045129    0.00000       Uiso       1.00
       N15          N  0.9860924  0.5919457  0.6206383    0.00000       Uiso       1.00
       O29          O  0.9824920  0.5823561  0.5961841    0.00000       Uiso       1.00
       O30          O  0.9864593  0.6153162  0.6334279    0.00000       Uiso       1.00
       N16          N  0.8431965  0.5064341  0.4777425    0.00000       Uiso       1.00
       O31          O  0.8676507  0.4951700  0.4813428    0.00000       Uiso       1.00
       O32          O  0.8304068  0.4954863  0.4773755    0.00000       Uiso       1.00
      C173          C  0.9987220  0.5199856  0.4647734    0.00000       Uiso       1.00
      C174          C  0.0043972  0.5303313  0.4934089    0.00000       Uiso       1.00
      C175          C  0.9930332  0.5247802  0.5050663    0.00000       Uiso       1.00
      C176          C  0.9810592  0.5042096  0.4480698    0.00000       Uiso       1.00
      C177          C  0.9692395  0.4991857  0.4595926    0.00000       Uiso       1.00
      C178          C  0.9748278  0.5093572  0.4883286    0.00000       Uiso       1.00
       H97          H  0.9503367  0.5539590  0.5327742    0.00000       Uiso       1.00
       H98          H  0.9234771  0.5355108  0.4678819    0.00000       Uiso       1.00
       H99          H  0.9769172  0.4948886  0.4260428    0.00000       Uiso       1.00
      H100          H  0.0178354  0.5426326  0.5069269    0.00000       Uiso       1.00
      C179          C  0.9838199  0.5352259  0.5900997    0.00000       Uiso       1.00
      C180          C  0.9680382  0.5519291  0.5733645    0.00000       Uiso       1.00
      C181          C  0.9630166  0.5404077  0.5449982    0.00000       Uiso       1.00
      C182          C  0.9941704  0.5065911  0.5774860    0.00000       Uiso       1.00
      C183          C  0.9886181  0.4949344  0.5489134    0.00000       Uiso       1.00
      C184          C  0.9731918  0.5116719  0.5320222    0.00000       Uiso       1.00
      H101          H  0.9993473  0.5321160  0.5272716    0.00000       Uiso       1.00
      H102          H  0.0177939  0.4672259  0.5076894    0.00000       Uiso       1.00
      H103          H  0.0064790  0.4930733  0.5897080    0.00000       Uiso       1.00
      H104          H  0.9587139  0.5739547  0.5819312    0.00000       Uiso       1.00
      C185          C  0.8737353  0.5348883  0.4800152    0.00000       Uiso       1.00
      C186          C  0.8904706  0.5172273  0.4957929    0.00000       Uiso       1.00
      C187          C  0.9188370  0.5054054  0.5008156    0.00000       Uiso       1.00
      C188          C  0.8863500  0.5405634  0.4696693    0.00000       Uiso       1.00
      C189          C  0.9149224  0.5291989  0.4752207    0.00000       Uiso       1.00
      C190          C  0.9318132  0.5109931  0.4906434    0.00000       Uiso       1.00
      H105          H  0.9365634  0.4596413  0.4644879    0.00000       Uiso       1.00
      H106          H  0.9561444  0.4865051  0.4460417    0.00000       Uiso       1.00
      H107          H  0.8741302  0.5539987  0.4573650    0.00000       Uiso       1.00
      H108          H  0.8819036  0.5130863  0.5051119    0.00000       Uiso       1.00
      C191          C  0.9990609  0.4099002  0.4651117    0.00000       Uiso       1.00
      C192          C  0.9704254  0.4225147  0.4594375    0.00000       Uiso       1.00
      C193          C  0.9587688  0.4510870  0.4708014    0.00000       Uiso       1.00
      C194          C  0.0157643  0.4266354  0.4827715    0.00000       Uiso       1.00
      C195          C  0.0042426  0.4550016  0.4945935    0.00000       Uiso       1.00
      C196          C  0.9755067  0.4679775  0.4890068    0.00000       Uiso       1.00
      H109          H  0.9310617  0.4923075  0.5134931    0.00000       Uiso       1.00
      H110          H  0.9959587  0.4727291  0.5403581    0.00000       Uiso       1.00
      H111          H  0.0377907  0.4180688  0.4869100    0.00000       Uiso       1.00
      H112          H  0.9569060  0.4102947  0.4460024    0.00000       Uiso       1.00
      C197          C  0.3222434  0.0365147  0.4273184    0.00000       Uiso       1.00
      C198          C  0.3365602  0.0506488  0.4537444    0.00000       Uiso       1.00
      C199          C  0.3648084  0.0385801  0.4658469    0.00000       Uiso       1.00
      C200          C  0.3365602  0.0100887  0.4131842    0.00000       Uiso       1.00
      C201          C  0.3648077  0.9979858  0.4252529    0.00000       Uiso       1.00
      C202          C  0.3795613  0.0114747  0.4523585    0.00000       Uiso       1.00
      H113          H  0.5143219  0.8390537  0.4765939    0.00000       Uiso       1.00
      H114          H  0.3251926  0.9982381  0.3916416    0.00000       Uiso       1.00
      H115          H  0.3251933  0.0721914  0.4655947    0.00000       Uiso       1.00
      C203          C  0.5726810  0.9962277  0.6777562    0.00000       Uiso       1.00
      C204          C  0.5462549  0.9942028  0.6634395    0.00000       Uiso       1.00
      C205          C  0.5341524  0.9901258  0.6351913    0.00000       Uiso       1.00
      C206          C  0.5868152  0.9942028  0.6634396    0.00000       Uiso       1.00
      C207          C  0.5747465  0.9901258  0.6351913    0.00000       Uiso       1.00
      C208          C  0.5476409  0.9889900  0.6204385    0.00000       Uiso       1.00
      H116          H  0.3752206  0.0508855  0.4856775    0.00000       Uiso       1.00
      H117          H  0.6083578  0.9958774  0.6748065    0.00000       Uiso       1.00
      H118          H  0.5344045  0.9958773  0.6748063    0.00000       Uiso       1.00
      C209          C  0.5726811  0.7860765  0.4676050    0.00000       Uiso       1.00
      C210          C  0.5868154  0.8003933  0.4696299    0.00000       Uiso       1.00
      C211          C  0.5747466  0.8286416  0.4737069    0.00000       Uiso       1.00
      C212          C  0.5462551  0.8003933  0.4696299    0.00000       Uiso       1.00
      C213          C  0.5341525  0.8286415  0.4737068    0.00000       Uiso       1.00
      C214          C  0.5476410  0.8433944  0.4748427    0.00000       Uiso       1.00
      H119          H  0.5234056  0.9781555  0.4129478    0.00000       Uiso       1.00
      H120          H  0.5344048  0.7890264  0.4679553    0.00000       Uiso       1.00
      H121          H  0.6083580  0.7890265  0.4679554    0.00000       Uiso       1.00
      C215          C  0.5323952  0.0365149  0.4273186    0.00000       Uiso       1.00
      C216          C  0.5303704  0.0100889  0.4131844    0.00000       Uiso       1.00
      C217          C  0.5262926  0.9979860  0.4252531    0.00000       Uiso       1.00
      C218          C  0.5303703  0.0506491  0.4537446    0.00000       Uiso       1.00
      C219          C  0.5262933  0.0385803  0.4658471    0.00000       Uiso       1.00
      C220          C  0.5251575  0.0114748  0.4523586    0.00000       Uiso       1.00
      H122          H  0.5870519  0.9872388  0.6247792    0.00000       Uiso       1.00
      C221          C  0.4999998  0.9638334  0.4999997    0.00000       Uiso       1.00
      H123          H  0.5320449  0.0721916  0.4655949    0.00000       Uiso       1.00
      H124          H  0.5320442  0.9982383  0.3916419    0.00000       Uiso       1.00
       N17          N  0.3793613  0.9702680  0.4080533    0.00000       Uiso       1.00
       O33          O  0.4038156  0.9590037  0.4176430    0.00000       Uiso       1.00
       O34          O  0.3665720  0.9593207  0.3846824    0.00000       Uiso       1.00
       N18          N  0.5222580  0.0557800  0.4935650    0.00000       Uiso       1.00
       O35          O  0.5186577  0.0461902  0.5048292    0.00000       Uiso       1.00
       O36          O  0.5226237  0.0791508  0.5045123    0.00000       Uiso       1.00
       N19          N  0.5064344  0.9860905  0.6206378    0.00000       Uiso       1.00
       O37          O  0.4951701  0.9824903  0.5961835    0.00000       Uiso       1.00
       O38          O  0.4954866  0.9864574  0.6334273    0.00000       Uiso       1.00
       N20          N  0.5919464  0.8431951  0.4777422    0.00000       Uiso       1.00
       O39          O  0.5823566  0.8676493  0.4813425    0.00000       Uiso       1.00
       O40          O  0.6153169  0.8304056  0.4773753    0.00000       Uiso       1.00
      C222          C  0.4099001  0.9987202  0.4647728    0.00000       Uiso       1.00
      C223          C  0.4225155  0.0043957  0.4934083    0.00000       Uiso       1.00
      C224          C  0.4510873  0.9930315  0.5050657    0.00000       Uiso       1.00
      C225          C  0.4266353  0.9810576  0.4480692    0.00000       Uiso       1.00
      C226          C  0.4550017  0.9692380  0.4595921    0.00000       Uiso       1.00
      C227          C  0.4679779  0.9748262  0.4883280    0.00000       Uiso       1.00
      H125          H  0.4923127  0.9503351  0.5327736    0.00000       Uiso       1.00
      H126          H  0.4727284  0.9234756  0.4678814    0.00000       Uiso       1.00
      H127          H  0.4180712  0.9769157  0.4260422    0.00000       Uiso       1.00
      H128          H  0.4102941  0.0178338  0.5069262    0.00000       Uiso       1.00
      C228          C  0.5348882  0.9838181  0.5900992    0.00000       Uiso       1.00
      C229          C  0.5172315  0.9680365  0.5733640    0.00000       Uiso       1.00
      C230          C  0.5054082  0.9630150  0.5449977    0.00000       Uiso       1.00
      C231          C  0.5405588  0.9941686  0.5774854    0.00000       Uiso       1.00
      C232          C  0.5291952  0.9886163  0.5489128    0.00000       Uiso       1.00
      C233          C  0.5109929  0.9731901  0.5320217    0.00000       Uiso       1.00
      H129          H  0.4596425  0.9993456  0.5272710    0.00000       Uiso       1.00
      H130          H  0.4865049  0.0177923  0.5076888    0.00000       Uiso       1.00
      H131          H  0.5539910  0.0064773  0.5897075    0.00000       Uiso       1.00
      H132          H  0.5130967  0.9587122  0.5819307    0.00000       Uiso       1.00
      C234          C  0.5352258  0.8737340  0.4800148    0.00000       Uiso       1.00
      C235          C  0.5519294  0.8904691  0.4957925    0.00000       Uiso       1.00
      C236          C  0.5404074  0.9188355  0.5008152    0.00000       Uiso       1.00
      C237          C  0.5065902  0.8863486  0.4696689    0.00000       Uiso       1.00
      C238          C  0.4949338  0.9149209  0.4752203    0.00000       Uiso       1.00
      C239          C  0.5116715  0.9318117  0.4906429    0.00000       Uiso       1.00
      H133          H  0.5321176  0.9365619  0.4644874    0.00000       Uiso       1.00
      H134          H  0.4672265  0.9561430  0.4460412    0.00000       Uiso       1.00
      H135          H  0.4930703  0.8741289  0.4573646    0.00000       Uiso       1.00
      H136          H  0.5739563  0.8819023  0.5051116    0.00000       Uiso       1.00
      C240          C  0.5199851  0.9990592  0.4651112    0.00000       Uiso       1.00
      C241          C  0.5303320  0.9704238  0.4594370    0.00000       Uiso       1.00
      C242          C  0.5247800  0.9587672  0.4708009    0.00000       Uiso       1.00
      C243          C  0.5042071  0.0157628  0.4827709    0.00000       Uiso       1.00
      C244          C  0.4991846  0.0042410  0.4945929    0.00000       Uiso       1.00
      C245          C  0.5093570  0.9755050  0.4890063    0.00000       Uiso       1.00
      H137          H  0.5539583  0.9310601  0.5134927    0.00000       Uiso       1.00
      H138          H  0.5355046  0.9959570  0.5403575    0.00000       Uiso       1.00
      H139          H  0.4948858  0.0377891  0.4869094    0.00000       Uiso       1.00
      H140          H  0.5426362  0.9569045  0.4460020    0.00000       Uiso       1.00
      C246          C  0.0365155  0.0365150  0.1415909    0.00000       Uiso       1.00
      C247          C  0.0506497  0.0100890  0.1272742    0.00000       Uiso       1.00
      C248          C  0.0385802  0.9979863  0.0990260    0.00000       Uiso       1.00
      C249          C  0.0100894  0.0506492  0.1272741    0.00000       Uiso       1.00
      C250          C  0.9979867  0.0385805  0.0990260    0.00000       Uiso       1.00
      C251          C  0.0114754  0.0114751  0.0842731    0.00000       Uiso       1.00
      H141          H  0.8390547  0.9872384  0.9495114    0.00000       Uiso       1.00
      H142          H  0.9982389  0.0721918  0.1386410    0.00000       Uiso       1.00
      H143          H  0.0721916  0.9982384  0.1386411    0.00000       Uiso       1.00
      C252          C  0.9962295  0.7860761  0.8911526    0.00000       Uiso       1.00
      C253          C  0.9942045  0.8003928  0.9175786    0.00000       Uiso       1.00
      C254          C  0.9901275  0.8286410  0.9296811    0.00000       Uiso       1.00
      C255          C  0.9942045  0.8003929  0.8770184    0.00000       Uiso       1.00
      C256          C  0.9901275  0.8286411  0.8890871    0.00000       Uiso       1.00
      C257          C  0.9889916  0.8433939  0.9161926    0.00000       Uiso       1.00
      H144          H  0.0508857  0.9781557  0.0886139    0.00000       Uiso       1.00
      H145          H  0.9958791  0.7890260  0.8554758    0.00000       Uiso       1.00
      H146          H  0.9958791  0.7890259  0.9294289    0.00000       Uiso       1.00
      C258          C  0.7860774  0.9962275  0.8911524    0.00000       Uiso       1.00
      C259          C  0.8003943  0.9942026  0.8770182    0.00000       Uiso       1.00
      C260          C  0.8286425  0.9901256  0.8890870    0.00000       Uiso       1.00
      C261          C  0.8003942  0.9942025  0.9175784    0.00000       Uiso       1.00
      C262          C  0.8286425  0.9901255  0.9296809    0.00000       Uiso       1.00
      C263          C  0.8433954  0.9889897  0.9161924    0.00000       Uiso       1.00
      H147          H  0.9781573  0.0508851  0.9404278    0.00000       Uiso       1.00
      H148          H  0.7890273  0.9958770  0.9294287    0.00000       Uiso       1.00
      H149          H  0.7890273  0.9958772  0.8554756    0.00000       Uiso       1.00
      C264          C  0.0365166  0.0365143  0.9314390    0.00000       Uiso       1.00
      C265          C  0.0100905  0.0506485  0.9334639    0.00000       Uiso       1.00
      C266          C  0.9979878  0.0385798  0.9375408    0.00000       Uiso       1.00
      C267          C  0.0506508  0.0100883  0.9334639    0.00000       Uiso       1.00
      C268          C  0.0385814  0.9979854  0.9375409    0.00000       Uiso       1.00
      C269          C  0.0114765  0.0114743  0.9386767    0.00000       Uiso       1.00
      H150          H  0.9872405  0.8390533  0.8767818    0.00000       Uiso       1.00
      C270          C  0.9638347  0.9638326  0.9638336    0.00000       Uiso       1.00
      H151          H  0.0721927  0.9982377  0.9317893    0.00000       Uiso       1.00
      H152          H  0.9982400  0.0721911  0.9317893    0.00000       Uiso       1.00
       N21          N  0.9702687  0.0557803  0.0844724    0.00000       Uiso       1.00
       O41          O  0.9590045  0.0461906  0.0600182    0.00000       Uiso       1.00
       O42          O  0.9593214  0.0791511  0.0972617    0.00000       Uiso       1.00
       N22          N  0.0557811  0.9702676  0.9415762    0.00000       Uiso       1.00
       O43          O  0.0461915  0.9590033  0.9451765    0.00000       Uiso       1.00
       O44          O  0.0791520  0.9593202  0.9412104    0.00000       Uiso       1.00
       N23          N  0.9860922  0.8431945  0.9573990    0.00000       Uiso       1.00
       O45          O  0.9824919  0.8676487  0.9686632    0.00000       Uiso       1.00
       O46          O  0.9864592  0.8304049  0.9683468    0.00000       Uiso       1.00
       N24          N  0.8431960  0.9860903  0.8718872    0.00000       Uiso       1.00
       O47          O  0.8676503  0.9824901  0.8814769    0.00000       Uiso       1.00
       O48          O  0.8304065  0.9864573  0.8485168    0.00000       Uiso       1.00
      C271          C  0.9987205  0.9990605  0.0539337    0.00000       Uiso       1.00
      C272          C  0.0043958  0.9704250  0.0413191    0.00000       Uiso       1.00
      C273          C  0.9930317  0.9587676  0.0127467    0.00000       Uiso       1.00
      C274          C  0.9810584  0.0157645  0.0371986    0.00000       Uiso       1.00
      C275          C  0.9692388  0.0042416  0.0088322    0.00000       Uiso       1.00
      C276          C  0.9748275  0.9755042  0.9958555    0.00000       Uiso       1.00
      H153          H  0.9503363  0.9310586  0.9715205    0.00000       Uiso       1.00
      H154          H  0.9234767  0.9959509  0.9911049    0.00000       Uiso       1.00
      H155          H  0.9769165  0.0377914  0.0457626    0.00000       Uiso       1.00
      H156          H  0.0178339  0.9569070  0.0535405    0.00000       Uiso       1.00
      C277          C  0.9838196  0.8737332  0.9289452    0.00000       Uiso       1.00
      C278          C  0.9680380  0.8904684  0.9466020    0.00000       Uiso       1.00
      C279          C  0.9630163  0.9188346  0.9584252    0.00000       Uiso       1.00
      C280          C  0.9941701  0.8863469  0.9232747    0.00000       Uiso       1.00
      C281          C  0.9886178  0.9149196  0.9346382    0.00000       Uiso       1.00
      C282          C  0.9731915  0.9318106  0.9528405    0.00000       Uiso       1.00
      H157          H  0.9993459  0.9365624  0.0041914    0.00000       Uiso       1.00
      H158          H  0.0177935  0.9561436  0.9773291    0.00000       Uiso       1.00
      H159          H  0.0064787  0.8741249  0.9098433    0.00000       Uiso       1.00
      H160          H  0.9587137  0.8819016  0.9507366    0.00000       Uiso       1.00
      C283          C  0.8737351  0.9838175  0.9286075    0.00000       Uiso       1.00
      C284          C  0.8904702  0.9680399  0.9119041    0.00000       Uiso       1.00
      C285          C  0.9188367  0.9630173  0.9234260    0.00000       Uiso       1.00
      C286          C  0.8863497  0.9941634  0.9572431    0.00000       Uiso       1.00
      C287          C  0.9149221  0.9886121  0.9688995    0.00000       Uiso       1.00
      C288          C  0.9318129  0.9731894  0.9521619    0.00000       Uiso       1.00
      H161          H  0.9365630  0.9993451  0.9317158    0.00000       Uiso       1.00
      H162          H  0.9561448  0.0177914  0.9966068    0.00000       Uiso       1.00
      H163          H  0.8741307  0.0064680  0.9707630    0.00000       Uiso       1.00
      H164          H  0.8819034  0.9587209  0.8898773    0.00000       Uiso       1.00
      C289          C  0.9990604  0.9987214  0.9438483    0.00000       Uiso       1.00
      C290          C  0.9704257  0.0043958  0.9335015    0.00000       Uiso       1.00
      C291          C  0.9587684  0.9930315  0.9390534    0.00000       Uiso       1.00
      C292          C  0.0157639  0.9810616  0.9596270    0.00000       Uiso       1.00
      C293          C  0.0042422  0.9692395  0.9646495    0.00000       Uiso       1.00
      C294          C  0.9755063  0.9748262  0.9544765    0.00000       Uiso       1.00
      H165          H  0.9310613  0.9503398  0.9098752    0.00000       Uiso       1.00
      H166          H  0.9959584  0.9234750  0.9283289    0.00000       Uiso       1.00
      H167          H  0.0377903  0.9769230  0.9689482    0.00000       Uiso       1.00
      H168          H  0.9569063  0.0178309  0.9211972    0.00000       Uiso       1.00
        B1          B  0.5868255  0.7546632  0.8770078    0.00000       Uiso       1.00
        B2          B  0.5868257  0.5868242  0.7091687    0.00000       Uiso       1.00
        B3          B  0.7546653  0.5868240  0.8770080    0.00000       Uiso       1.00
      C295          C  0.6180217  0.6662205  0.8216271    0.00000       Uiso       1.00
      C296          C  0.5951249  0.7137954  0.8458219    0.00000       Uiso       1.00
      H169          H  0.5752403  0.6926195  0.8051535    0.00000       Uiso       1.00
       O49          O  0.5738779  0.7388489  0.8488002    0.00000       Uiso       1.00
      C297          C  0.5944353  0.6906857  0.8223133    0.00000       Uiso       1.00
      C298          C  0.6422065  0.6180202  0.7976115    0.00000       Uiso       1.00
      C299          C  0.6180117  0.5951235  0.7500365    0.00000       Uiso       1.00
      H170          H  0.6586801  0.5752389  0.7712125    0.00000       Uiso       1.00
       O50          O  0.6150333  0.5738766  0.7249830    0.00000       Uiso       1.00
      C300          C  0.6415203  0.5944338  0.7731462    0.00000       Uiso       1.00
      C301          C  0.6662222  0.6422048  0.8458118    0.00000       Uiso       1.00
      C302          C  0.7137973  0.6180100  0.8687087    0.00000       Uiso       1.00
      H171          H  0.6926212  0.6586783  0.8885932    0.00000       Uiso       1.00
       O51          O  0.7388508  0.6150316  0.8899556    0.00000       Uiso       1.00
      C303          C  0.6906875  0.6415185  0.8693982    0.00000       Uiso       1.00
      C304          C  0.6180217  0.6422048  0.7976115    0.00000       Uiso       1.00
      C305          C  0.5951250  0.6180101  0.7500365    0.00000       Uiso       1.00
       O52          O  0.5738780  0.6150318  0.7249830    0.00000       Uiso       1.00
      H172          H  0.5752403  0.6586785  0.7712125    0.00000       Uiso       1.00
      C306          C  0.5944353  0.6415187  0.7731462    0.00000       Uiso       1.00
      C307          C  0.6422064  0.6662205  0.8458118    0.00000       Uiso       1.00
      C308          C  0.6180115  0.7137954  0.8687085    0.00000       Uiso       1.00
      H173          H  0.6586801  0.6926194  0.8885931    0.00000       Uiso       1.00
       O53          O  0.6150332  0.7388489  0.8899555    0.00000       Uiso       1.00
      C309          C  0.6415201  0.6906857  0.8693981    0.00000       Uiso       1.00
      C310          C  0.6662222  0.6180201  0.8216272    0.00000       Uiso       1.00
      C311          C  0.7137973  0.5951234  0.8458221    0.00000       Uiso       1.00
      H174          H  0.6926214  0.5752389  0.8051537    0.00000       Uiso       1.00
       O54          O  0.7388509  0.5738764  0.8488004    0.00000       Uiso       1.00
      C312          C  0.6906875  0.5944338  0.8223135    0.00000       Uiso       1.00
        B4          B  0.7546653  0.5868250  0.4644815    0.00000       Uiso       1.00
        B5          B  0.5868257  0.5868248  0.4644813    0.00000       Uiso       1.00
        B6          B  0.5868255  0.7546642  0.4644813    0.00000       Uiso       1.00
      C313          C  0.6662222  0.6180210  0.4626153    0.00000       Uiso       1.00
      C314          C  0.7137973  0.5951242  0.4630988    0.00000       Uiso       1.00
      H175          H  0.6926213  0.5752396  0.4627066    0.00000       Uiso       1.00
       O55          O  0.7388508  0.5738773  0.4639271    0.00000       Uiso       1.00
      C315          C  0.6906876  0.5944346  0.4628080    0.00000       Uiso       1.00
      C316          C  0.6180217  0.6422056  0.4626153    0.00000       Uiso       1.00
      C317          C  0.5951250  0.6180108  0.4630987    0.00000       Uiso       1.00
      H176          H  0.5752404  0.6586791  0.4627065    0.00000       Uiso       1.00
       O56          O  0.5738780  0.6150324  0.4639269    0.00000       Uiso       1.00
      C318          C  0.5944353  0.6415193  0.4628080    0.00000       Uiso       1.00
      C319          C  0.6422064  0.6662213  0.4626153    0.00000       Uiso       1.00
      C320          C  0.6180115  0.7137963  0.4630987    0.00000       Uiso       1.00
      H177          H  0.6586800  0.6926203  0.4627066    0.00000       Uiso       1.00
       O57          O  0.6150332  0.7388498  0.4639269    0.00000       Uiso       1.00
      C321          C  0.6415201  0.6906866  0.4628080    0.00000       Uiso       1.00
      C322          C  0.6422065  0.6180210  0.4626153    0.00000       Uiso       1.00
      C323          C  0.6180117  0.5951242  0.4630987    0.00000       Uiso       1.00
       O58          O  0.6150333  0.5738772  0.4639269    0.00000       Uiso       1.00
      H178          H  0.6586801  0.5752396  0.4627066    0.00000       Uiso       1.00
      C324          C  0.6415202  0.5944346  0.4628080    0.00000       Uiso       1.00
      C325          C  0.6662222  0.6422057  0.4626153    0.00000       Uiso       1.00
      C326          C  0.7137973  0.6180108  0.4630988    0.00000       Uiso       1.00
      H179          H  0.6926213  0.6586792  0.4627066    0.00000       Uiso       1.00
       O59          O  0.7388508  0.6150326  0.4639271    0.00000       Uiso       1.00
      C327          C  0.6906875  0.6415194  0.4628080    0.00000       Uiso       1.00
      C328          C  0.6180217  0.6662213  0.4626153    0.00000       Uiso       1.00
      C329          C  0.5951249  0.7137963  0.4630987    0.00000       Uiso       1.00
      H180          H  0.5752403  0.6926203  0.4627065    0.00000       Uiso       1.00
       O60          O  0.5738779  0.7388498  0.4639269    0.00000       Uiso       1.00
      C330          C  0.5944353  0.6906866  0.4628080    0.00000       Uiso       1.00
      C331          C  0.5374386  0.2498856  0.3822905    0.00000       Uiso       1.00
      C332          C  0.5388528  0.2262460  0.3588233    0.00000       Uiso       1.00
      C333          C  0.5416014  0.2254946  0.3362998    0.00000       Uiso       1.00
      C334          C  0.5415891  0.2021307  0.3124331    0.00000       Uiso       1.00
      C335          C  0.5372614  0.1795322  0.3099295    0.00000       Uiso       1.00
      C336          C  0.5341155  0.1809069  0.3327332    0.00000       Uiso       1.00
      C337          C  0.5368210  0.2029954  0.3579033    0.00000       Uiso       1.00
       O61          O  0.5380313  0.2746739  0.3860562    0.00000       Uiso       1.00
      H181          H  0.5437860  0.2431396  0.3373033    0.00000       Uiso       1.00
      H182          H  0.5446972  0.2022316  0.2960069    0.00000       Uiso       1.00
      H183          H  0.5277767  0.1655481  0.3303667    0.00000       Uiso       1.00
      C338          C  0.5375114  0.0815114  0.4050374    0.00000       Uiso       1.00
      C339          C  0.5389420  0.1049726  0.4062822    0.00000       Uiso       1.00
      C340          C  0.5416768  0.1275049  0.4307973    0.00000       Uiso       1.00
      C341          C  0.5416564  0.1513725  0.4312807    0.00000       Uiso       1.00
      C342          C  0.5373271  0.1538722  0.4068556    0.00000       Uiso       1.00
      C343          C  0.5342085  0.1310523  0.3822899    0.00000       Uiso       1.00
      C344          C  0.5369254  0.1058817  0.3819229    0.00000       Uiso       1.00
       O62          O  0.5380668  0.0777654  0.4266458    0.00000       Uiso       1.00
      H184          H  0.5438434  0.1265161  0.4496222    0.00000       Uiso       1.00
      H185          H  0.5447509  0.1678045  0.4509126    0.00000       Uiso       1.00
      H186          H  0.5278717  0.1334029  0.3629536    0.00000       Uiso       1.00
      C345          C  0.5374864  0.0588091  0.2139706    0.00000       Uiso       1.00
      C346          C  0.5389383  0.0575584  0.2376215    0.00000       Uiso       1.00
      C347          C  0.5417116  0.0330304  0.2383777    0.00000       Uiso       1.00
      C348          C  0.5417256  0.0325293  0.2617508    0.00000       Uiso       1.00
      C349          C  0.5374001  0.0569499  0.2843526    0.00000       Uiso       1.00
      C350          C  0.5342443  0.0815311  0.2829774    0.00000       Uiso       1.00
      C351          C  0.5369146  0.0819178  0.2608736    0.00000       Uiso       1.00
       O63          O  0.5380743  0.0371922  0.1891841    0.00000       Uiso       1.00
      H187          H  0.5438812  0.0142120  0.2207205    0.00000       Uiso       1.00
      H188          H  0.5448402  0.0128908  0.2616492    0.00000       Uiso       1.00
      H189          H  0.5279153  0.1008606  0.2983423    0.00000       Uiso       1.00
      C352          C  0.5339103  0.0829561  0.2128472    0.00000       Uiso       1.00
      C353          C  0.5332552  0.1071196  0.2358371    0.00000       Uiso       1.00
      C354          C  0.5302611  0.1315984  0.2347929    0.00000       Uiso       1.00
      C355          C  0.5307028  0.1552851  0.2583343    0.00000       Uiso       1.00
      C356          C  0.5357440  0.1545925  0.2839243    0.00000       Uiso       1.00
      C357          C  0.5393317  0.1295139  0.2846392    0.00000       Uiso       1.00
      C358          C  0.5361225  0.1063507  0.2606321    0.00000       Uiso       1.00
       O64          O  0.5318718  0.0800628  0.1872398    0.00000       Uiso       1.00
      H190          H  0.5274688  0.1323119  0.2155770    0.00000       Uiso       1.00
      H191          H  0.5272846  0.1739138  0.2561802    0.00000       Uiso       1.00
      H192          H  0.5462580  0.1274094  0.3042414    0.00000       Uiso       1.00
      C359          C  0.5339826  0.0597955  0.3808995    0.00000       Uiso       1.00
      C360          C  0.5333530  0.0592693  0.3567443    0.00000       Uiso       1.00
      C361          C  0.5304184  0.0367167  0.3322778    0.00000       Uiso       1.00
      C362          C  0.5308784  0.0361289  0.3086009    0.00000       Uiso       1.00
      C363          C  0.5358734  0.0573980  0.3092868    0.00000       Uiso       1.00
      C364          C  0.5394057  0.0796250  0.3343552    0.00000       Uiso       1.00
      C365          C  0.5361827  0.0819838  0.3575067    0.00000       Uiso       1.00
       O65          O  0.5319524  0.0391161  0.3837936    0.00000       Uiso       1.00
      H193          H  0.5276457  0.0195655  0.3315625    0.00000       Uiso       1.00
      H194          H  0.5275016  0.0187427  0.2899828    0.00000       Uiso       1.00
      H195          H  0.5463118  0.0944276  0.3364731    0.00000       Uiso       1.00
      C366          C  0.5339071  0.2509891  0.4040042    0.00000       Uiso       1.00
      C367          C  0.5332593  0.2279945  0.4045186    0.00000       Uiso       1.00
      C368          C  0.5303326  0.2290162  0.4270747    0.00000       Uiso       1.00
      C369          C  0.5307966  0.2054685  0.4276684    0.00000       Uiso       1.00
      C370          C  0.5357773  0.1798897  0.4063919    0.00000       Uiso       1.00
      C371          C  0.5392900  0.1792007  0.3841518    0.00000       Uiso       1.00
      C372          C  0.5360734  0.2032172  0.3817971    0.00000       Uiso       1.00
       O66          O  0.5319070  0.2765813  0.4247005    0.00000       Uiso       1.00
      H196          H  0.5275708  0.2482263  0.4442278    0.00000       Uiso       1.00
      H197          H  0.5274375  0.2076155  0.4450664    0.00000       Uiso       1.00
      H198          H  0.5461822  0.1596086  0.3693389    0.00000       Uiso       1.00
        B7          B  0.5345119  0.2914663  0.4130639    0.00000       Uiso       1.00
        B8          B  0.5345330  0.0507649  0.4129141    0.00000       Uiso       1.00
        B9          B  0.5345072  0.0509291  0.1723692    0.00000       Uiso       1.00
      C373          C  0.2498859  0.5374373  0.4050330    0.00000       Uiso       1.00
      C374          C  0.2262463  0.5388514  0.4062748    0.00000       Uiso       1.00
      C375          C  0.2254948  0.5415999  0.4307953    0.00000       Uiso       1.00
      C376          C  0.2021308  0.5415876  0.4312858    0.00000       Uiso       1.00
      C377          C  0.1795323  0.5372599  0.4068632    0.00000       Uiso       1.00
      C378          C  0.1809070  0.5341141  0.3822884    0.00000       Uiso       1.00
      C379          C  0.2029956  0.5368196  0.3819123    0.00000       Uiso       1.00
       O67          O  0.2746743  0.5380300  0.4266484    0.00000       Uiso       1.00
      H199          H  0.2431399  0.5437846  0.4496215    0.00000       Uiso       1.00
      H200          H  0.2022317  0.5446957  0.4509210    0.00000       Uiso       1.00
      H201          H  0.1655482  0.5277753  0.3629573    0.00000       Uiso       1.00
      C380          C  0.0815116  0.5375102  0.2139847    0.00000       Uiso       1.00
      C381          C  0.1049728  0.5389408  0.2376316    0.00000       Uiso       1.00
      C382          C  0.1275052  0.5416756  0.2383838    0.00000       Uiso       1.00
      C383          C  0.1513728  0.5416552  0.2617476    0.00000       Uiso       1.00
      C384          C  0.1538725  0.5373259  0.2843430    0.00000       Uiso       1.00
      C385          C  0.1310525  0.5342072  0.2829702    0.00000       Uiso       1.00
      C386          C  0.1058819  0.5369242  0.2608835    0.00000       Uiso       1.00
       O68          O  0.0777657  0.5380657  0.1891859    0.00000       Uiso       1.00
      H202          H  0.1265165  0.5438422  0.2207368    0.00000       Uiso       1.00
      H203          H  0.1678049  0.5447497  0.2616423    0.00000       Uiso       1.00
      H204          H  0.1334030  0.5278705  0.2983203    0.00000       Uiso       1.00
      C387          C  0.0588088  0.5374848  0.3823237    0.00000       Uiso       1.00
      C388          C  0.0575582  0.5389367  0.3588741    0.00000       Uiso       1.00
      C389          C  0.0330302  0.5417100  0.3363632    0.00000       Uiso       1.00
      C390          C  0.0325291  0.5417241  0.3125031    0.00000       Uiso       1.00
      C391          C  0.0569498  0.5373986  0.3099965    0.00000       Uiso       1.00
      C392          C  0.0815310  0.5342429  0.3327971    0.00000       Uiso       1.00
      C393          C  0.0819177  0.5369130  0.3579579    0.00000       Uiso       1.00
       O69          O  0.0371918  0.5380727  0.3860813    0.00000       Uiso       1.00
      H205          H  0.0142117  0.5438796  0.3373716    0.00000       Uiso       1.00
      H206          H  0.0128905  0.5448387  0.2960807    0.00000       Uiso       1.00
      H207          H  0.1008606  0.5279139  0.3304328    0.00000       Uiso       1.00
      C394          C  0.0829558  0.5339087  0.4040181    0.00000       Uiso       1.00
      C395          C  0.1071195  0.5332536  0.4045367    0.00000       Uiso       1.00
      C396          C  0.1315983  0.5302595  0.4270656    0.00000       Uiso       1.00
      C397          C  0.1552851  0.5307012  0.4276526    0.00000       Uiso       1.00
      C398          C  0.1545925  0.5357425  0.4064113    0.00000       Uiso       1.00
      C399          C  0.1295139  0.5393302  0.3842055    0.00000       Uiso       1.00
      C400          C  0.1063506  0.5361210  0.3818401    0.00000       Uiso       1.00
       O70          O  0.0800625  0.5318701  0.4246936    0.00000       Uiso       1.00
      H208          H  0.1323117  0.5274672  0.4442026    0.00000       Uiso       1.00
      H209          H  0.1739138  0.5272831  0.4450173    0.00000       Uiso       1.00
      H210          H  0.1274095  0.5462565  0.3694251    0.00000       Uiso       1.00
      C401          C  0.0597956  0.5339814  0.2128779    0.00000       Uiso       1.00
      C402          C  0.0592694  0.5333518  0.2358774    0.00000       Uiso       1.00
      C403          C  0.0367167  0.5304171  0.2348565    0.00000       Uiso       1.00
      C404          C  0.0361289  0.5308771  0.2584056    0.00000       Uiso       1.00
      C405          C  0.0573980  0.5358720  0.2839837    0.00000       Uiso       1.00
      C406          C  0.0796251  0.5394044  0.2846747    0.00000       Uiso       1.00
      C407          C  0.0819838  0.5361814  0.2606590    0.00000       Uiso       1.00
       O71          O  0.0391162  0.5319511  0.1872742    0.00000       Uiso       1.00
      H211          H  0.0195655  0.5276444  0.2156479    0.00000       Uiso       1.00
      H212          H  0.0187426  0.5275002  0.2562606    0.00000       Uiso       1.00
      H213          H  0.0944277  0.5463104  0.3042655    0.00000       Uiso       1.00
      C408          C  0.2509895  0.5339059  0.3808914    0.00000       Uiso       1.00
      C409          C  0.2279949  0.5332581  0.3567347    0.00000       Uiso       1.00
      C410          C  0.2290167  0.5303314  0.3322736    0.00000       Uiso       1.00
      C411          C  0.2054688  0.5307955  0.3085961    0.00000       Uiso       1.00
      C412          C  0.1798901  0.5357760  0.3092745    0.00000       Uiso       1.00
      C413          C  0.1792009  0.5392887  0.3343382    0.00000       Uiso       1.00
      C414          C  0.2032175  0.5360721  0.3574928    0.00000       Uiso       1.00
       O72          O  0.2765818  0.5319058  0.3837872    0.00000       Uiso       1.00
      H214          H  0.2482268  0.5275697  0.3315689    0.00000       Uiso       1.00
      H215          H  0.2076159  0.5274364  0.2899860    0.00000       Uiso       1.00
      H216          H  0.1596088  0.5461809  0.3364512    0.00000       Uiso       1.00
       B10          B  0.2914668  0.5345107  0.4129138    0.00000       Uiso       1.00
       B11          B  0.0507651  0.5345318  0.1723832    0.00000       Uiso       1.00
       B12          B  0.0509287  0.5345055  0.4130659    0.00000       Uiso       1.00
       B13          B  0.5868253  0.9993514  0.7091687    0.00000       Uiso       1.00
       B14          B  0.5868253  0.9993510  0.8770078    0.00000       Uiso       1.00
       B15          B  0.7546650  0.9993512  0.8770080    0.00000       Uiso       1.00
      C415          C  0.6180222  0.0012175  0.7976115    0.00000       Uiso       1.00
      C416          C  0.5951254  0.0007342  0.7500365    0.00000       Uiso       1.00
      H217          H  0.5752408  0.0011263  0.7712125    0.00000       Uiso       1.00
       O73          O  0.5738777  0.9999057  0.7249830    0.00000       Uiso       1.00
      C417          C  0.5944358  0.0010249  0.7731462    0.00000       Uiso       1.00
      C418          C  0.6422070  0.0012175  0.8458118    0.00000       Uiso       1.00
      C419          C  0.6180121  0.0007340  0.8687085    0.00000       Uiso       1.00
      H218          H  0.6586806  0.0011261  0.8885931    0.00000       Uiso       1.00
       O74          O  0.6150330  0.9999053  0.8899555    0.00000       Uiso       1.00
      C420          C  0.6415207  0.0010247  0.8693981    0.00000       Uiso       1.00
      C421          C  0.6662227  0.0012176  0.8216272    0.00000       Uiso       1.00
      C422          C  0.7137977  0.0007341  0.8458221    0.00000       Uiso       1.00
      H219          H  0.6926217  0.0011263  0.8051537    0.00000       Uiso       1.00
       O75          O  0.7388505  0.9999056  0.8488004    0.00000       Uiso       1.00
      C423          C  0.6906880  0.0010249  0.8223135    0.00000       Uiso       1.00
      C424          C  0.6180222  0.0012175  0.8216271    0.00000       Uiso       1.00
      C425          C  0.5951254  0.0007340  0.8458219    0.00000       Uiso       1.00
       O76          O  0.5738777  0.9999054  0.8488002    0.00000       Uiso       1.00
      H220          H  0.5752409  0.0011262  0.8051535    0.00000       Uiso       1.00
      C426          C  0.5944358  0.0010248  0.8223133    0.00000       Uiso       1.00
      C427          C  0.6422070  0.0012176  0.7976115    0.00000       Uiso       1.00
      C428          C  0.6180121  0.0007342  0.7500365    0.00000       Uiso       1.00
      H221          H  0.6586806  0.0011264  0.7712125    0.00000       Uiso       1.00
       O77          O  0.6150330  0.9999058  0.7249830    0.00000       Uiso       1.00
      C429          C  0.6415207  0.0010249  0.7731462    0.00000       Uiso       1.00
      C430          C  0.6662227  0.0012175  0.8458118    0.00000       Uiso       1.00
      C431          C  0.7137977  0.0007341  0.8687087    0.00000       Uiso       1.00
      H222          H  0.6926218  0.0011262  0.8885932    0.00000       Uiso       1.00
       O78          O  0.7388506  0.9999055  0.8899556    0.00000       Uiso       1.00
      C432          C  0.6906880  0.0010248  0.8693982    0.00000       Uiso       1.00
      C433          C  0.2498863  0.0815416  0.9263946    0.00000       Uiso       1.00
      C434          C  0.2262466  0.1050089  0.9249805    0.00000       Uiso       1.00
      C435          C  0.2254951  0.1275325  0.9222319    0.00000       Uiso       1.00
      C436          C  0.2021311  0.1513992  0.9222442    0.00000       Uiso       1.00
      C437          C  0.1795326  0.1539026  0.9265718    0.00000       Uiso       1.00
      C438          C  0.1809074  0.1310990  0.9297177    0.00000       Uiso       1.00
      C439          C  0.2029959  0.1059289  0.9270122    0.00000       Uiso       1.00
       O79          O  0.2746747  0.0777760  0.9258019    0.00000       Uiso       1.00
      H223          H  0.2431402  0.1265289  0.9200473    0.00000       Uiso       1.00
      H224          H  0.2022320  0.1678254  0.9191360    0.00000       Uiso       1.00
      H225          H  0.1655485  0.1334654  0.9360564    0.00000       Uiso       1.00
      C440          C  0.0815120  0.0587945  0.9263217    0.00000       Uiso       1.00
      C441          C  0.1049731  0.0575497  0.9248912    0.00000       Uiso       1.00
      C442          C  0.1275056  0.0330347  0.9221563    0.00000       Uiso       1.00
      C443          C  0.1513732  0.0325513  0.9221768    0.00000       Uiso       1.00
      C444          C  0.1538728  0.0569764  0.9265061    0.00000       Uiso       1.00
      C445          C  0.1310529  0.0815421  0.9296247    0.00000       Uiso       1.00
      C446          C  0.1058822  0.0819091  0.9269077    0.00000       Uiso       1.00
       O80          O  0.0777661  0.0371861  0.9257663    0.00000       Uiso       1.00
      H226          H  0.1265169  0.0142098  0.9199898    0.00000       Uiso       1.00
      H227          H  0.1678053  0.0129194  0.9190823    0.00000       Uiso       1.00
      H228          H  0.1334033  0.1008784  0.9359614    0.00000       Uiso       1.00
      C447          C  0.0588090  0.2498616  0.9263468    0.00000       Uiso       1.00
      C448          C  0.0575584  0.2262106  0.9248948    0.00000       Uiso       1.00
      C449          C  0.0330304  0.2254544  0.9221216    0.00000       Uiso       1.00
      C450          C  0.0325293  0.2020814  0.9221076    0.00000       Uiso       1.00
      C451          C  0.0569501  0.1794795  0.9264330    0.00000       Uiso       1.00
      C452          C  0.0815313  0.1808547  0.9295888    0.00000       Uiso       1.00
      C453          C  0.0819179  0.2029586  0.9269186    0.00000       Uiso       1.00
       O81          O  0.0371920  0.2746482  0.9257588    0.00000       Uiso       1.00
      H229          H  0.0142119  0.2431116  0.9199519    0.00000       Uiso       1.00
      H230          H  0.0128908  0.2021829  0.9189929    0.00000       Uiso       1.00
      H231          H  0.1008608  0.1654898  0.9359178    0.00000       Uiso       1.00
      C454          C  0.0829560  0.2509850  0.9299228    0.00000       Uiso       1.00
      C455          C  0.1071197  0.2279951  0.9305779    0.00000       Uiso       1.00
      C456          C  0.1315985  0.2290393  0.9335720    0.00000       Uiso       1.00
      C457          C  0.1552853  0.2054979  0.9331304    0.00000       Uiso       1.00
      C458          C  0.1545928  0.1799079  0.9280893    0.00000       Uiso       1.00
      C459          C  0.1295142  0.1791929  0.9245015    0.00000       Uiso       1.00
      C460          C  0.1063508  0.2032001  0.9277107    0.00000       Uiso       1.00
       O82          O  0.0800627  0.2765925  0.9319614    0.00000       Uiso       1.00
      H232          H  0.1323119  0.2482552  0.9363644    0.00000       Uiso       1.00
      H233          H  0.1739140  0.2076520  0.9365485    0.00000       Uiso       1.00
      H234          H  0.1274097  0.1595908  0.9175752    0.00000       Uiso       1.00
      C461          C  0.0597960  0.0829324  0.9298505    0.00000       Uiso       1.00
      C462          C  0.0592697  0.1070877  0.9304800    0.00000       Uiso       1.00
      C463          C  0.0367170  0.1315541  0.9334147    0.00000       Uiso       1.00
      C464          C  0.0361292  0.1552310  0.9329546    0.00000       Uiso       1.00
      C465          C  0.0573982  0.1545453  0.9279597    0.00000       Uiso       1.00
      C466          C  0.0796254  0.1294768  0.9244274    0.00000       Uiso       1.00
      C467          C  0.0819842  0.1063253  0.9276505    0.00000       Uiso       1.00
       O83          O  0.0391166  0.0800383  0.9318807    0.00000       Uiso       1.00
      H235          H  0.0195658  0.1322695  0.9361874    0.00000       Uiso       1.00
      H236          H  0.0187429  0.1738492  0.9363316    0.00000       Uiso       1.00
      H237          H  0.0944280  0.1273590  0.9175214    0.00000       Uiso       1.00
      C468          C  0.2509898  0.0598280  0.9299261    0.00000       Uiso       1.00
      C469          C  0.2279953  0.0593135  0.9305739    0.00000       Uiso       1.00
      C470          C  0.2290171  0.0367573  0.9335006    0.00000       Uiso       1.00
      C471          C  0.2054693  0.0361636  0.9330366    0.00000       Uiso       1.00
      C472          C  0.1798904  0.0574402  0.9280559    0.00000       Uiso       1.00
      C473          C  0.1792013  0.0796803  0.9245433    0.00000       Uiso       1.00
      C474          C  0.2032178  0.0820349  0.9277597    0.00000       Uiso       1.00
       O84          O  0.2765822  0.0391316  0.9319262    0.00000       Uiso       1.00
      H238          H  0.2482272  0.0196043  0.9362624    0.00000       Uiso       1.00
      H239          H  0.2076163  0.0187656  0.9363956    0.00000       Uiso       1.00
      H240          H  0.1596092  0.0944932  0.9176510    0.00000       Uiso       1.00
       B16          B  0.2914672  0.0507683  0.9293212    0.00000       Uiso       1.00
       B17          B  0.0507655  0.0509178  0.9293001    0.00000       Uiso       1.00
       B18          B  0.0509289  0.2914630  0.9293260    0.00000       Uiso       1.00
       B19          B  0.9993532  0.7546637  0.8770083    0.00000       Uiso       1.00
       B20          B  0.9993533  0.5868243  0.8770083    0.00000       Uiso       1.00
       B21          B  0.9993533  0.5868247  0.7091691    0.00000       Uiso       1.00
      C475          C  0.0012195  0.6662208  0.8458123    0.00000       Uiso       1.00
      C476          C  0.0007360  0.7137958  0.8687090    0.00000       Uiso       1.00
      H241          H  0.0011282  0.6926198  0.8885935    0.00000       Uiso       1.00
       O85          O  0.9999076  0.7388493  0.8899559    0.00000       Uiso       1.00
      C477          C  0.0010268  0.6906862  0.8693986    0.00000       Uiso       1.00
      C478          C  0.0012195  0.6180205  0.8216276    0.00000       Uiso       1.00
      C479          C  0.0007361  0.5951237  0.8458224    0.00000       Uiso       1.00
      H242          H  0.0011283  0.5752392  0.8051540    0.00000       Uiso       1.00
       O86          O  0.9999077  0.5738767  0.8488007    0.00000       Uiso       1.00
      C480          C  0.0010268  0.5944341  0.8223138    0.00000       Uiso       1.00
      C481          C  0.0012195  0.6422053  0.7976120    0.00000       Uiso       1.00
      C482          C  0.0007361  0.6180105  0.7500370    0.00000       Uiso       1.00
      H243          H  0.0011282  0.6586789  0.7712129    0.00000       Uiso       1.00
       O87          O  0.9999077  0.6150323  0.7249835    0.00000       Uiso       1.00
      C483          C  0.0010268  0.6415191  0.7731466    0.00000       Uiso       1.00
      C484          C  0.0012195  0.6422051  0.8458123    0.00000       Uiso       1.00
      C485          C  0.0007361  0.6180103  0.8687090    0.00000       Uiso       1.00
       O88          O  0.9999077  0.6150319  0.8899559    0.00000       Uiso       1.00
      H244          H  0.0011282  0.6586787  0.8885935    0.00000       Uiso       1.00
      C486          C  0.0010268  0.6415189  0.8693986    0.00000       Uiso       1.00
      C487          C  0.0012195  0.6662209  0.8216276    0.00000       Uiso       1.00
      C488          C  0.0007360  0.7137958  0.8458224    0.00000       Uiso       1.00
      H245          H  0.0011282  0.6926200  0.8051540    0.00000       Uiso       1.00
       O89          O  0.9999077  0.7388494  0.8488007    0.00000       Uiso       1.00
      C489          C  0.0010267  0.6906862  0.8223138    0.00000       Uiso       1.00
      C490          C  0.0012195  0.6180206  0.7976120    0.00000       Uiso       1.00
      C491          C  0.0007361  0.5951239  0.7500370    0.00000       Uiso       1.00
      H246          H  0.0011283  0.5752393  0.7712129    0.00000       Uiso       1.00
       O90          O  0.9999077  0.5738770  0.7249835    0.00000       Uiso       1.00
      C492          C  0.0010268  0.5944342  0.7731466    0.00000       Uiso       1.00
      C493          C  0.0815447  0.2498862  0.4050340    0.00000       Uiso       1.00
      C494          C  0.1050119  0.2262466  0.4062757    0.00000       Uiso       1.00
      C495          C  0.1275356  0.2254950  0.4307964    0.00000       Uiso       1.00
      C496          C  0.1514024  0.2021311  0.4312869    0.00000       Uiso       1.00
      C497          C  0.1539059  0.1795327  0.4068643    0.00000       Uiso       1.00
      C498          C  0.1311022  0.1809074  0.3822895    0.00000       Uiso       1.00
      C499          C  0.1059320  0.2029959  0.3819133    0.00000       Uiso       1.00
       O91          O  0.0777790  0.2746744  0.4266493    0.00000       Uiso       1.00
      H247          H  0.1265320  0.2431400  0.4496225    0.00000       Uiso       1.00
      H248          H  0.1678286  0.2022319  0.4509221    0.00000       Uiso       1.00
      H249          H  0.1334687  0.1655487  0.3629584    0.00000       Uiso       1.00
      C500          C  0.0587979  0.0815124  0.2139858    0.00000       Uiso       1.00
      C501          C  0.0575530  0.1049735  0.2376327    0.00000       Uiso       1.00
      C502          C  0.0330378  0.1275059  0.2383848    0.00000       Uiso       1.00
      C503          C  0.0325545  0.1513734  0.2617486    0.00000       Uiso       1.00
      C504          C  0.0569796  0.1538730  0.2843440    0.00000       Uiso       1.00
      C505          C  0.0815454  0.1310531  0.2829713    0.00000       Uiso       1.00
      C506          C  0.0819124  0.1058826  0.2608846    0.00000       Uiso       1.00
       O92          O  0.0371894  0.0777665  0.1891869    0.00000       Uiso       1.00
      H250          H  0.0142129  0.1265172  0.2207378    0.00000       Uiso       1.00
      H251          H  0.0129225  0.1678055  0.2616433    0.00000       Uiso       1.00
      H252          H  0.1008817  0.1334036  0.2983213    0.00000       Uiso       1.00
      C507          C  0.2498651  0.0588095  0.3823251    0.00000       Uiso       1.00
      C508          C  0.2262142  0.0575589  0.3588754    0.00000       Uiso       1.00
      C509          C  0.2254581  0.0330310  0.3363646    0.00000       Uiso       1.00
      C510          C  0.2020849  0.0325299  0.3125044    0.00000       Uiso       1.00
      C511          C  0.1794830  0.0569506  0.3099977    0.00000       Uiso       1.00
      C512          C  0.1808582  0.0815317  0.3327983    0.00000       Uiso       1.00
      C513          C  0.2029621  0.0819183  0.3579591    0.00000       Uiso       1.00
       O93          O  0.2746518  0.0371926  0.3860827    0.00000       Uiso       1.00
      H253          H  0.2431153  0.0142125  0.3373730    0.00000       Uiso       1.00
      H254          H  0.2021865  0.0128914  0.2960821    0.00000       Uiso       1.00
      H255          H  0.1654932  0.1008612  0.3304339    0.00000       Uiso       1.00
      C514          C  0.2509886  0.0829564  0.4040194    0.00000       Uiso       1.00
      C515          C  0.2279986  0.1071201  0.4045380    0.00000       Uiso       1.00
      C516          C  0.2290427  0.1315988  0.4270668    0.00000       Uiso       1.00
      C517          C  0.2055013  0.1552855  0.4276538    0.00000       Uiso       1.00
      C518          C  0.1799112  0.1545930  0.4064125    0.00000       Uiso       1.00
      C519          C  0.1791963  0.1295144  0.3842067    0.00000       Uiso       1.00
      C520          C  0.2032035  0.1063512  0.3818414    0.00000       Uiso       1.00
       O94          O  0.2765961  0.0800631  0.4246950    0.00000       Uiso       1.00
      H256          H  0.2482587  0.1323122  0.4442038    0.00000       Uiso       1.00
      H257          H  0.2076554  0.1739142  0.4450185    0.00000       Uiso       1.00
      H258          H  0.1595941  0.1274100  0.3694263    0.00000       Uiso       1.00
      C521          C  0.0829358  0.0597965  0.2128790    0.00000       Uiso       1.00
      C522          C  0.1070911  0.0592703  0.2358785    0.00000       Uiso       1.00
      C523          C  0.1315576  0.0367176  0.2348577    0.00000       Uiso       1.00
      C524          C  0.1552346  0.0361298  0.2584068    0.00000       Uiso       1.00
      C525          C  0.1545487  0.0573988  0.2839850    0.00000       Uiso       1.00
      C526          C  0.1294802  0.0796258  0.2846759    0.00000       Uiso       1.00
      C527          C  0.1063287  0.0819846  0.2606601    0.00000       Uiso       1.00
       O95          O  0.0800417  0.0391172  0.1872754    0.00000       Uiso       1.00
      H259          H  0.1322730  0.0195665  0.2156492    0.00000       Uiso       1.00
      H260          H  0.1738528  0.0187435  0.2562619    0.00000       Uiso       1.00
      H261          H  0.1273623  0.0944284  0.3042667    0.00000       Uiso       1.00
      C528          C  0.0598310  0.2509897  0.3808923    0.00000       Uiso       1.00
      C529          C  0.0593165  0.2279952  0.3567356    0.00000       Uiso       1.00
      C530          C  0.0367603  0.2290170  0.3322745    0.00000       Uiso       1.00
      C531          C  0.0361667  0.2054693  0.3085970    0.00000       Uiso       1.00
      C532          C  0.0574433  0.1798905  0.3092755    0.00000       Uiso       1.00
      C533          C  0.0796835  0.1792014  0.3343392    0.00000       Uiso       1.00
      C534          C  0.0820381  0.2032178  0.3574938    0.00000       Uiso       1.00
       O96          O  0.0391345  0.2765819  0.3837881    0.00000       Uiso       1.00
      H262          H  0.0196072  0.2482271  0.3315698    0.00000       Uiso       1.00
      H263          H  0.0187686  0.2076163  0.2899870    0.00000       Uiso       1.00
      H264          H  0.0944963  0.1596093  0.3364522    0.00000       Uiso       1.00
       B22          B  0.0507712  0.2914669  0.4129147    0.00000       Uiso       1.00
       B23          B  0.0509212  0.0507661  0.1723843    0.00000       Uiso       1.00
       B24          B  0.2914667  0.0509294  0.4130673    0.00000       Uiso       1.00
