data_53
_audit_creation_date              0000-00-00
_audit_creation_method            'LanYouShi'
_symmetry_space_group_name_H-M    'P1'
_cell_length_a                    66.9181976
_cell_length_b                    66.9181976
_cell_length_c                    66.9181976
_cell_angle_alpha                 60.0000000
_cell_angle_beta                  120.0002975
_cell_angle_gamma                 120.0002975
loop_
_atom_site_label
_atom_site_type_symbol
_atom_site_fract_x
_atom_site_fract_y
_atom_site_fract_z
_atom_site_U_iso_or_equiv
_atom_site_adp_type
_atom_site_occupancy
        C1          C  0.2625374  0.4029060  0.4029061    0.00000       Uiso       1.00
        C2          C  0.2752469  0.3903587  0.4263655    0.00000       Uiso       1.00
        C3          C  0.3005524  0.4010528  0.4371340    0.00000       Uiso       1.00
        C4          C  0.2752469  0.4263653  0.3903588    0.00000       Uiso       1.00
        C5          C  0.3005512  0.4371105  0.4009691    0.00000       Uiso       1.00
        C6          C  0.3136600  0.4245967  0.4245418    0.00000       Uiso       1.00
        H1          H  0.5446404  0.4636495  0.6901932    0.00000       Uiso       1.00
        H2          H  0.5448484  0.6900319  0.4641153    0.00000       Uiso       1.00
        H3          H  0.2651561  0.4368852  0.3712347    0.00000       Uiso       1.00
        H4          H  0.2651561  0.3712345  0.4368853    0.00000       Uiso       1.00
        C7          C  0.5970911  0.4567248  0.7374603    0.00000       Uiso       1.00
        C8          C  0.5736318  0.4585223  0.7247507    0.00000       Uiso       1.00
        C9          C  0.5628867  0.4624710  0.6994465    0.00000       Uiso       1.00
       C10          C  0.6096386  0.4585225  0.7247509    0.00000       Uiso       1.00
       C11          C  0.5989444  0.4623649  0.6994456    0.00000       Uiso       1.00
       C12          C  0.5754005  0.4645206  0.6863380    0.00000       Uiso       1.00
        H5          H  0.3099651  0.3906997  0.4551477    0.00000       Uiso       1.00
        H6          H  0.5363483  0.3907986  0.4553580    0.00000       Uiso       1.00
        H7          H  0.6287628  0.4570360  0.7348417    0.00000       Uiso       1.00
        H8          H  0.5631118  0.4570356  0.7348414    0.00000       Uiso       1.00
       C13          C  0.5970911  0.7374598  0.4567251    0.00000       Uiso       1.00
       C14          C  0.6096386  0.7247503  0.4585229    0.00000       Uiso       1.00
       C15          C  0.5990286  0.6994460  0.4624724    0.00000       Uiso       1.00
       C16          C  0.5736316  0.7247502  0.4585226    0.00000       Uiso       1.00
       C17          C  0.5628629  0.6994448  0.4623646    0.00000       Uiso       1.00
       C18          C  0.5754557  0.6863375  0.4645213    0.00000       Uiso       1.00
        H9          H  0.5358837  0.4551499  0.3907027    0.00000       Uiso       1.00
       H10          H  0.3098044  0.4553568  0.3907977    0.00000       Uiso       1.00
       H11          H  0.5631117  0.7348409  0.4570360    0.00000       Uiso       1.00
       H12          H  0.6287627  0.7348412  0.4570363    0.00000       Uiso       1.00
       C19          C  0.5432739  0.4029075  0.4029076    0.00000       Uiso       1.00
       C20          C  0.5414762  0.4263667  0.3903601    0.00000       Uiso       1.00
       C21          C  0.5376344  0.4371356  0.4010549    0.00000       Uiso       1.00
       C22          C  0.5414762  0.3903601  0.4263668    0.00000       Uiso       1.00
       C23          C  0.5375271  0.4009700  0.4371119    0.00000       Uiso       1.00
       C24          C  0.5354781  0.4245429  0.4245986    0.00000       Uiso       1.00
       H13          H  0.6092002  0.6901923  0.4636519    0.00000       Uiso       1.00
       H14          H  0.6092974  0.4641168  0.6900329    0.00000       Uiso       1.00
       C25          C  0.4999992  0.5000007  0.4999996    0.00000       Uiso       1.00
       H15          H  0.5429628  0.3712360  0.4368867    0.00000       Uiso       1.00
       H16          H  0.5429628  0.4368867  0.3712361    0.00000       Uiso       1.00
       C26          C  0.3407861  0.4359493  0.4357785    0.00000       Uiso       1.00
       C27          C  0.3515544  0.4331477  0.4608718    0.00000       Uiso       1.00
       C28          C  0.3769278  0.4437102  0.4713480    0.00000       Uiso       1.00
       C29          C  0.3562263  0.4496730  0.4215047    0.00000       Uiso       1.00
       C30          C  0.3815942  0.4602149  0.4319759    0.00000       Uiso       1.00
       C31          C  0.3923908  0.4574234  0.4570813    0.00000       Uiso       1.00
       H17          H  0.5298620  0.5022610  0.6071330    0.00000       Uiso       1.00
       H18          H  0.5093812  0.6155944  0.4523221    0.00000       Uiso       1.00
       H19          H  0.3487369  0.4518580  0.4022548    0.00000       Uiso       1.00
       H20          H  0.3402610  0.4231040  0.4723722    0.00000       Uiso       1.00
       C32          C  0.5640479  0.4690568  0.6592123    0.00000       Uiso       1.00
       C33          C  0.5503268  0.4850495  0.6437715    0.00000       Uiso       1.00
       C34          C  0.5397857  0.4894053  0.6184036    0.00000       Uiso       1.00
       C35          C  0.5668479  0.4575316  0.6484447    0.00000       Uiso       1.00
       C36          C  0.5562859  0.4618672  0.6230711    0.00000       Uiso       1.00
       C37          C  0.5425755  0.4778858  0.6076078    0.00000       Uiso       1.00
       H21          H  0.3844081  0.4414420  0.4906214    0.00000       Uiso       1.00
       H22          H  0.4977385  0.4204716  0.4701374    0.00000       Uiso       1.00
       H23          H  0.5768905  0.4447806  0.6597387    0.00000       Uiso       1.00
       H24          H  0.5481445  0.4946271  0.6512607    0.00000       Uiso       1.00
       C38          C  0.5642191  0.6592119  0.4690577    0.00000       Uiso       1.00
       C39          C  0.5784908  0.6437705  0.4850568    0.00000       Uiso       1.00
       C40          C  0.5680189  0.6184026  0.4894108    0.00000       Uiso       1.00
       C41          C  0.5391283  0.6484455  0.4575243    0.00000       Uiso       1.00
       C42          C  0.5286521  0.6230725  0.4618569    0.00000       Uiso       1.00
       C43          C  0.5429168  0.6076085  0.4778824    0.00000       Uiso       1.00
       H25          H  0.5476749  0.4906180  0.4414628    0.00000       Uiso       1.00
       H26          H  0.3928646  0.4701435  0.4204661    0.00000       Uiso       1.00
       H27          H  0.5276304  0.6597407  0.4447673    0.00000       Uiso       1.00
       H28          H  0.5977387  0.6512589  0.4946390    0.00000       Uiso       1.00
       C44          C  0.5309420  0.4357791  0.4359519    0.00000       Uiso       1.00
       C45          C  0.5424733  0.4608704  0.4331589    0.00000       Uiso       1.00
       C46          C  0.5381415  0.4713464  0.4437238    0.00000       Uiso       1.00
       C47          C  0.5149457  0.4215064  0.4496690    0.00000       Uiso       1.00
       C48          C  0.5105928  0.4319781  0.4602121    0.00000       Uiso       1.00
       C49          C  0.5221187  0.4570808  0.4574305    0.00000       Uiso       1.00
       H29          H  0.5795243  0.6071287  0.5022687    0.00000       Uiso       1.00
       H30          H  0.5585522  0.4523424  0.6155894    0.00000       Uiso       1.00
       H31          H  0.5053654  0.4022580  0.4518486    0.00000       Uiso       1.00
       H32          H  0.5552285  0.4723693  0.4231208    0.00000       Uiso       1.00
       C50          C  0.4195870  0.4685946  0.4683188    0.00000       Uiso       1.00
       C51          C  0.4325776  0.4561980  0.4919732    0.00000       Uiso       1.00
       C52          C  0.4580373  0.4663869  0.5022838    0.00000       Uiso       1.00
       C53          C  0.4329698  0.4914786  0.4552887    0.00000       Uiso       1.00
       C54          C  0.4584225  0.5016481  0.4655964    0.00000       Uiso       1.00
       C55          C  0.4714819  0.4897667  0.4896838    0.00000       Uiso       1.00
       H33          H  0.4811521  0.4946617  0.5319808    0.00000       Uiso       1.00
       H34          H  0.4799452  0.5326930  0.4916296    0.00000       Uiso       1.00
       H35          H  0.4237427  0.5016006  0.4370011    0.00000       Uiso       1.00
       H36          H  0.4231397  0.4381560  0.5022656    0.00000       Uiso       1.00
       C56          C  0.5314049  0.4826728  0.5804120    0.00000       Uiso       1.00
       C57          C  0.5085214  0.4862024  0.5670295    0.00000       Uiso       1.00
       C58          C  0.4983518  0.4911799  0.5415761    0.00000       Uiso       1.00
       C59          C  0.5438012  0.4844053  0.5674216    0.00000       Uiso       1.00
       C60          C  0.5336121  0.4893675  0.5419613    0.00000       Uiso       1.00
       C61          C  0.5102331  0.4920339  0.5285165    0.00000       Uiso       1.00
       H37          H  0.4673086  0.4556195  0.5200524    0.00000       Uiso       1.00
       H38          H  0.5053288  0.4545036  0.5188465    0.00000       Uiso       1.00
       H39          H  0.5618443  0.4827192  0.5768588    0.00000       Uiso       1.00
       H40          H  0.4984030  0.4851418  0.5762599    0.00000       Uiso       1.00
       C62          C  0.5316806  0.5804129  0.4826700    0.00000       Uiso       1.00
       C63          C  0.5447116  0.5670301  0.4862012    0.00000       Uiso       1.00
       C64          C  0.5344044  0.5415775  0.4911786    0.00000       Uiso       1.00
       C65          C  0.5080268  0.5674232  0.4844027    0.00000       Uiso       1.00
       C66          C  0.4977157  0.5419635  0.4893635    0.00000       Uiso       1.00
       C67          C  0.5103161  0.5285187  0.4920302    0.00000       Uiso       1.00
       H41          H  0.5083712  0.5200536  0.4556273    0.00000       Uiso       1.00
       H42          H  0.4680153  0.5188510  0.4545108    0.00000       Uiso       1.00
       H43          H  0.4977354  0.5768636  0.4827111    0.00000       Uiso       1.00
       H44          H  0.5629992  0.5762573  0.4851394    0.00000       Uiso       1.00
       C68          C  0.5173302  0.4683166  0.4686021    0.00000       Uiso       1.00
       C69          C  0.5156007  0.4919720  0.4562061    0.00000       Uiso       1.00
       C70          C  0.5106374  0.5022831  0.4663920    0.00000       Uiso       1.00
       C71          C  0.5137931  0.4552839  0.4914827    0.00000       Uiso       1.00
       C72          C  0.5088137  0.4655919  0.5016485    0.00000       Uiso       1.00
       C73          C  0.5079654  0.4896816  0.4897681    0.00000       Uiso       1.00
       H45          H  0.5454923  0.5319858  0.4946567    0.00000       Uiso       1.00
       H46          H  0.5443785  0.4916406  0.5326872    0.00000       Uiso       1.00
       H47          H  0.5148507  0.4369944  0.5016055    0.00000       Uiso       1.00
       H48          H  0.5172976  0.5022655  0.4381676    0.00000       Uiso       1.00
       C74          C  0.5432740  0.1492579  0.4029076    0.00000       Uiso       1.00
       C75          C  0.5414764  0.1365484  0.4263668    0.00000       Uiso       1.00
       C76          C  0.5376334  0.1112430  0.4371352    0.00000       Uiso       1.00
       C77          C  0.5414764  0.1365484  0.3903601    0.00000       Uiso       1.00
       C78          C  0.5375274  0.1112442  0.4009703    0.00000       Uiso       1.00
       C79          C  0.5354775  0.0981354  0.4245429    0.00000       Uiso       1.00
       H49          H  0.6091996  0.8671561  0.6901936    0.00000       Uiso       1.00
       H50          H  0.6092961  0.8669481  0.4641156    0.00000       Uiso       1.00
       H51          H  0.5429631  0.1466392  0.3712361    0.00000       Uiso       1.00
       H52          H  0.5429630  0.1466392  0.4368867    0.00000       Uiso       1.00
       C80          C  0.5970909  0.8147054  0.7374603    0.00000       Uiso       1.00
       C81          C  0.6096383  0.8381647  0.7247509    0.00000       Uiso       1.00
       C82          C  0.5990281  0.8489098  0.6994467    0.00000       Uiso       1.00
       C83          C  0.5736315  0.8021579  0.7247507    0.00000       Uiso       1.00
       C84          C  0.5628629  0.8128520  0.6994454    0.00000       Uiso       1.00
       C85          C  0.5754552  0.8363960  0.6863380    0.00000       Uiso       1.00
       H53          H  0.5358813  0.1018304  0.4551489    0.00000       Uiso       1.00
       H54          H  0.3098044  0.8754470  0.4553568    0.00000       Uiso       1.00
       H55          H  0.5631116  0.7830338  0.7348414    0.00000       Uiso       1.00
       H56          H  0.6287625  0.8486847  0.7348418    0.00000       Uiso       1.00
       C86          C  0.5970910  0.8147057  0.4567252    0.00000       Uiso       1.00
       C87          C  0.5736316  0.8021582  0.4585226    0.00000       Uiso       1.00
       C88          C  0.5628868  0.8127680  0.4624723    0.00000       Uiso       1.00
       C89          C  0.6096385  0.8381650  0.4585229    0.00000       Uiso       1.00
       C90          C  0.5989439  0.8489338  0.4623648    0.00000       Uiso       1.00
       C91          C  0.5754004  0.8363410  0.4645213    0.00000       Uiso       1.00
       H57          H  0.3099650  0.8759116  0.3907016    0.00000       Uiso       1.00
       H58          H  0.5363492  0.1019910  0.3907989    0.00000       Uiso       1.00
       H59          H  0.6287626  0.8486850  0.4570363    0.00000       Uiso       1.00
       H60          H  0.5631117  0.7830341  0.4570360    0.00000       Uiso       1.00
       C92          C  0.2625371  0.8685213  0.4029062    0.00000       Uiso       1.00
       C93          C  0.2752466  0.8703189  0.3903588    0.00000       Uiso       1.00
       C94          C  0.3005521  0.8741608  0.4010537    0.00000       Uiso       1.00
       C95          C  0.2752466  0.8703189  0.4263655    0.00000       Uiso       1.00
       C96          C  0.3005509  0.8742681  0.4371107    0.00000       Uiso       1.00
       C97          C  0.3136595  0.8763171  0.4245975    0.00000       Uiso       1.00
       H61          H  0.5446408  0.8025964  0.4636515    0.00000       Uiso       1.00
       H62          H  0.5448490  0.8024991  0.6900327    0.00000       Uiso       1.00
       C98          C  0.4999982  0.9117966  0.4999996    0.00000       Uiso       1.00
       H63          H  0.2651558  0.8688323  0.4368854    0.00000       Uiso       1.00
       H64          H  0.2651559  0.8688323  0.3712347    0.00000       Uiso       1.00
       C99          C  0.5309406  0.0710095  0.4357795    0.00000       Uiso       1.00
      C100          C  0.5424640  0.0602413  0.4608728    0.00000       Uiso       1.00
      C101          C  0.5381291  0.0348679  0.4713489    0.00000       Uiso       1.00
      C102          C  0.5149502  0.0555693  0.4215055    0.00000       Uiso       1.00
      C103          C  0.5105951  0.0302014  0.4319766    0.00000       Uiso       1.00
      C104          C  0.5221125  0.0194049  0.4570820    0.00000       Uiso       1.00
       H65          H  0.5795293  0.8819343  0.6071332    0.00000       Uiso       1.00
       H66          H  0.5585327  0.9024150  0.4523223    0.00000       Uiso       1.00
       H67          H  0.5053747  0.0630586  0.4022556    0.00000       Uiso       1.00
       H68          H  0.5552142  0.0715347  0.4723733    0.00000       Uiso       1.00
      C105          C  0.5642182  0.8477484  0.6592123    0.00000       Uiso       1.00
      C106          C  0.5784912  0.8614695  0.6437716    0.00000       Uiso       1.00
      C107          C  0.5680202  0.8720105  0.6184037    0.00000       Uiso       1.00
      C108          C  0.5391254  0.8449484  0.6484447    0.00000       Uiso       1.00
      C109          C  0.5286494  0.8555103  0.6230710    0.00000       Uiso       1.00
      C110          C  0.5429152  0.8692207  0.6076078    0.00000       Uiso       1.00
       H69          H  0.5476541  0.0273877  0.4906223    0.00000       Uiso       1.00
       H70          H  0.3928672  0.9140570  0.4701369    0.00000       Uiso       1.00
       H71          H  0.5276256  0.8349057  0.6597384    0.00000       Uiso       1.00
       H72          H  0.5977405  0.8636520  0.6512609    0.00000       Uiso       1.00
      C111          C  0.5640476  0.8475773  0.4690577    0.00000       Uiso       1.00
      C112          C  0.5503336  0.8333057  0.4850567    0.00000       Uiso       1.00
      C113          C  0.5397915  0.8437774  0.4894107    0.00000       Uiso       1.00
      C114          C  0.5668388  0.8726681  0.4575244    0.00000       Uiso       1.00
      C115          C  0.5562746  0.8831443  0.4618571    0.00000       Uiso       1.00
      C116          C  0.5425712  0.8688795  0.4778824    0.00000       Uiso       1.00
       H73          H  0.3844024  0.8641208  0.4414621    0.00000       Uiso       1.00
       H74          H  0.4977435  0.0189311  0.4204667    0.00000       Uiso       1.00
       H75          H  0.5768749  0.8841659  0.4447675    0.00000       Uiso       1.00
       H76          H  0.5481561  0.8140578  0.4946387    0.00000       Uiso       1.00
      C117          C  0.3407853  0.8808534  0.4359510    0.00000       Uiso       1.00
      C118          C  0.3515523  0.8693222  0.4331580    0.00000       Uiso       1.00
      C119          C  0.3769252  0.8736541  0.4437230    0.00000       Uiso       1.00
      C120          C  0.3562261  0.8968497  0.4496682    0.00000       Uiso       1.00
      C121          C  0.3815939  0.9012027  0.4602115    0.00000       Uiso       1.00
      C122          C  0.3923890  0.8896767  0.4574298    0.00000       Uiso       1.00
       H77          H  0.5298700  0.8322721  0.5022685    0.00000       Uiso       1.00
       H78          H  0.5093764  0.8532439  0.6155892    0.00000       Uiso       1.00
       H79          H  0.3487376  0.9064298  0.4518479    0.00000       Uiso       1.00
       H80          H  0.3402578  0.8565670  0.4231198    0.00000       Uiso       1.00
      C123          C  0.5173240  0.9922087  0.4683193    0.00000       Uiso       1.00
      C124          C  0.5155911  0.9792180  0.4919736    0.00000       Uiso       1.00
      C125          C  0.5106307  0.9537584  0.5022840    0.00000       Uiso       1.00
      C126          C  0.5137950  0.9788258  0.4552892    0.00000       Uiso       1.00
      C127          C  0.5088194  0.9533733  0.4655966    0.00000       Uiso       1.00
      C128          C  0.5079659  0.9403138  0.4896840    0.00000       Uiso       1.00
       H81          H  0.5454878  0.9306439  0.5319812    0.00000       Uiso       1.00
       H82          H  0.5443748  0.9318507  0.4916299    0.00000       Uiso       1.00
       H83          H  0.5148566  0.9880528  0.4370016    0.00000       Uiso       1.00
       H84          H  0.5172794  0.9886559  0.5022660    0.00000       Uiso       1.00
      C129          C  0.5316771  0.8803913  0.5804120    0.00000       Uiso       1.00
      C130          C  0.5447078  0.9032746  0.5670298    0.00000       Uiso       1.00
      C131          C  0.5344015  0.9134442  0.5415763    0.00000       Uiso       1.00
      C132          C  0.5080227  0.8679948  0.5674215    0.00000       Uiso       1.00
      C133          C  0.4977136  0.8781838  0.5419611    0.00000       Uiso       1.00
      C134          C  0.5103144  0.9015628  0.5285165    0.00000       Uiso       1.00
       H85          H  0.5083608  0.9444872  0.5200527    0.00000       Uiso       1.00
       H86          H  0.4680182  0.9064670  0.5188463    0.00000       Uiso       1.00
       H87          H  0.4977306  0.8499518  0.5768585    0.00000       Uiso       1.00
       H88          H  0.5629960  0.9133931  0.5762602    0.00000       Uiso       1.00
      C135          C  0.5313995  0.8801156  0.4826700    0.00000       Uiso       1.00
      C136          C  0.5085167  0.8670844  0.4862011    0.00000       Uiso       1.00
      C137          C  0.4983486  0.8773916  0.4911784    0.00000       Uiso       1.00
      C138          C  0.5437963  0.9037693  0.4844029    0.00000       Uiso       1.00
      C139          C  0.5336086  0.9140804  0.4893637    0.00000       Uiso       1.00
      C140          C  0.5102300  0.9014799  0.4920302    0.00000       Uiso       1.00
       H89          H  0.4673067  0.9034246  0.4556271    0.00000       Uiso       1.00
       H90          H  0.5053438  0.9437804  0.4545110    0.00000       Uiso       1.00
       H91          H  0.5618368  0.9140607  0.4827115    0.00000       Uiso       1.00
       H92          H  0.4983943  0.8487970  0.4851391    0.00000       Uiso       1.00
      C141          C  0.4195852  0.8944655  0.4686016    0.00000       Uiso       1.00
      C142          C  0.4325742  0.8961951  0.4562057    0.00000       Uiso       1.00
      C143          C  0.4580346  0.9011583  0.4663918    0.00000       Uiso       1.00
      C144          C  0.4329702  0.8980026  0.4914823    0.00000       Uiso       1.00
      C145          C  0.4584236  0.9029821  0.5016482    0.00000       Uiso       1.00
      C146          C  0.4714814  0.9038305  0.4897680    0.00000       Uiso       1.00
       H93          H  0.4811470  0.8663037  0.4946564    0.00000       Uiso       1.00
       H94          H  0.4799461  0.8674175  0.5326869    0.00000       Uiso       1.00
       H95          H  0.4237459  0.8969449  0.5016050    0.00000       Uiso       1.00
       H96          H  0.4231322  0.8944980  0.4381671    0.00000       Uiso       1.00
      C147          C  0.0088911  0.8685251  0.4029099    0.00000       Uiso       1.00
      C148          C  0.0214386  0.8703228  0.4263692    0.00000       Uiso       1.00
      C149          C  0.0107445  0.8741657  0.4371375    0.00000       Uiso       1.00
      C150          C  0.9854319  0.8703226  0.3903624    0.00000       Uiso       1.00
      C151          C  0.9746869  0.8742716  0.4009725    0.00000       Uiso       1.00
      C152          C  0.9872007  0.8763215  0.4245451    0.00000       Uiso       1.00
       H97          H  0.9481485  0.8025985  0.6901953    0.00000       Uiso       1.00
       H98          H  0.7217652  0.8025012  0.4641162    0.00000       Uiso       1.00
       H99          H  0.9749120  0.8688360  0.3712383    0.00000       Uiso       1.00
      H100          H  0.0405628  0.8688363  0.4368892    0.00000       Uiso       1.00
      C153          C  0.9550735  0.8147072  0.7374621    0.00000       Uiso       1.00
      C154          C  0.9532759  0.8021598  0.7247527    0.00000       Uiso       1.00
      C155          C  0.9493271  0.8127701  0.6994485    0.00000       Uiso       1.00
      C156          C  0.9532759  0.8381665  0.7247527    0.00000       Uiso       1.00
      C157          C  0.9494333  0.8489351  0.6994473    0.00000       Uiso       1.00
      C158          C  0.9472775  0.8363428  0.6863399    0.00000       Uiso       1.00
      H101          H  0.0210976  0.8759177  0.4551513    0.00000       Uiso       1.00
      H102          H  0.0210006  0.1019932  0.4553604    0.00000       Uiso       1.00
      H103          H  0.9547624  0.8486864  0.7348434    0.00000       Uiso       1.00
      H104          H  0.9547625  0.7830358  0.7348434    0.00000       Uiso       1.00
      C159          C  0.6743374  0.8147061  0.4567255    0.00000       Uiso       1.00
      C160          C  0.6870469  0.8381654  0.4585232    0.00000       Uiso       1.00
      C161          C  0.7123513  0.8489103  0.4624730    0.00000       Uiso       1.00
      C162          C  0.6870469  0.8021588  0.4585232    0.00000       Uiso       1.00
      C163          C  0.7123523  0.8128533  0.4623654    0.00000       Uiso       1.00
      C164          C  0.7254598  0.8363969  0.4645221    0.00000       Uiso       1.00
      H105          H  0.9566492  0.1018323  0.3907048    0.00000       Uiso       1.00
      H106          H  0.9564404  0.8754497  0.3908010    0.00000       Uiso       1.00
      H107          H  0.6769561  0.7830347  0.4570366    0.00000       Uiso       1.00
      H108          H  0.6769561  0.8486853  0.4570366    0.00000       Uiso       1.00
      C165          C  0.0088917  0.1492602  0.4029099    0.00000       Uiso       1.00
      C166          C  0.9854324  0.1365506  0.3903624    0.00000       Uiso       1.00
      C167          C  0.9746636  0.1112452  0.4010571    0.00000       Uiso       1.00
      C168          C  0.0214391  0.1365507  0.4263692    0.00000       Uiso       1.00
      C169          C  0.0108291  0.1112466  0.4371143    0.00000       Uiso       1.00
      C170          C  0.9872562  0.0981379  0.4246009    0.00000       Uiso       1.00
      H109          H  0.7216051  0.8671563  0.4636524    0.00000       Uiso       1.00
      H110          H  0.9476815  0.8669489  0.6900347    0.00000       Uiso       1.00
      C171          C  0.9117970  0.9117994  0.5000016    0.00000       Uiso       1.00
      H111          H  0.0405633  0.1466416  0.4368893    0.00000       Uiso       1.00
      H112          H  0.9749125  0.1466413  0.3712383    0.00000       Uiso       1.00
      C172          C  0.9758481  0.8808583  0.4357817    0.00000       Uiso       1.00
      C173          C  0.9786497  0.8693349  0.4608749    0.00000       Uiso       1.00
      C174          C  0.9680874  0.8736698  0.4713510    0.00000       Uiso       1.00
      C175          C  0.9621245  0.8968486  0.4215078    0.00000       Uiso       1.00
      C176          C  0.9515827  0.9012036  0.4319788    0.00000       Uiso       1.00
      C177          C  0.9543741  0.8896863  0.4570841    0.00000       Uiso       1.00
      H113          H  0.9095368  0.8322685  0.6071349    0.00000       Uiso       1.00
      H114          H  0.7962030  0.8532649  0.4523235    0.00000       Uiso       1.00
      H115          H  0.9599394  0.9064241  0.4022579    0.00000       Uiso       1.00
      H116          H  0.9886935  0.8565848  0.4723755    0.00000       Uiso       1.00
      C178          C  0.9427413  0.8475798  0.6592142    0.00000       Uiso       1.00
      C179          C  0.9267486  0.8333068  0.6437733    0.00000       Uiso       1.00
      C180          C  0.9223927  0.8437777  0.6184055    0.00000       Uiso       1.00
      C181          C  0.9542666  0.8726726  0.6484467    0.00000       Uiso       1.00
      C182          C  0.9499310  0.8831485  0.6230731    0.00000       Uiso       1.00
      C183          C  0.9339122  0.8688826  0.6076098    0.00000       Uiso       1.00
      H117          H  0.9703556  0.8641449  0.4906244    0.00000       Uiso       1.00
      H118          H  0.9913274  0.0189306  0.4701399    0.00000       Uiso       1.00
      H119          H  0.9670177  0.8841724  0.6597406    0.00000       Uiso       1.00
      H120          H  0.9171708  0.8140575  0.6512625    0.00000       Uiso       1.00
      C184          C  0.7525855  0.8477497  0.4690586    0.00000       Uiso       1.00
      C185          C  0.7680270  0.8614637  0.4850578    0.00000       Uiso       1.00
      C186          C  0.7933949  0.8720058  0.4894120    0.00000       Uiso       1.00
      C187          C  0.7633518  0.8449585  0.4575254    0.00000       Uiso       1.00
      C188          C  0.7887249  0.8555228  0.4618582    0.00000       Uiso       1.00
      C189          C  0.8041890  0.8692262  0.4778837    0.00000       Uiso       1.00
      H121          H  0.9211809  0.0273951  0.4414648    0.00000       Uiso       1.00
      H122          H  0.9416540  0.9140551  0.4204689    0.00000       Uiso       1.00
      H123          H  0.7520565  0.8349225  0.4447684    0.00000       Uiso       1.00
      H124          H  0.7605386  0.8636410  0.4946398    0.00000       Uiso       1.00
      C190          C  0.9760200  0.0710122  0.4359542    0.00000       Uiso       1.00
      C191          C  0.9509287  0.0602451  0.4331610    0.00000       Uiso       1.00
      C192          C  0.9404525  0.0348723  0.4437258    0.00000       Uiso       1.00
      C193          C  0.9902925  0.0555714  0.4496714    0.00000       Uiso       1.00
      C194          C  0.9798209  0.0302037  0.4602145    0.00000       Uiso       1.00
      C195          C  0.9547181  0.0194086  0.4574327    0.00000       Uiso       1.00
      H125          H  0.8046690  0.8819273  0.5022699    0.00000       Uiso       1.00
      H126          H  0.9594558  0.9024214  0.6155914    0.00000       Uiso       1.00
      H127          H  0.0095409  0.0630600  0.4518511    0.00000       Uiso       1.00
      H128          H  0.9394298  0.0715395  0.4231228    0.00000       Uiso       1.00
      C196          C  0.9432030  0.8944739  0.4683214    0.00000       Uiso       1.00
      C197          C  0.9555997  0.8962068  0.4919758    0.00000       Uiso       1.00
      C198          C  0.9454109  0.9011672  0.5022863    0.00000       Uiso       1.00
      C199          C  0.9203190  0.8980027  0.4552912    0.00000       Uiso       1.00
      C200          C  0.9101496  0.9029784  0.4655986    0.00000       Uiso       1.00
      C201          C  0.9220310  0.9038318  0.4896861    0.00000       Uiso       1.00
      H129          H  0.9171361  0.8663101  0.5319830    0.00000       Uiso       1.00
      H130          H  0.8791046  0.8674229  0.4916316    0.00000       Uiso       1.00
      H131          H  0.9101969  0.8969411  0.4370036    0.00000       Uiso       1.00
      H132          H  0.9736418  0.8945186  0.5022684    0.00000       Uiso       1.00
      C202          C  0.9291251  0.8801207  0.5804141    0.00000       Uiso       1.00
      C203          C  0.9255955  0.8670901  0.5670317    0.00000       Uiso       1.00
      C204          C  0.9206179  0.8773963  0.5415782    0.00000       Uiso       1.00
      C205          C  0.9273927  0.9037750  0.5674236    0.00000       Uiso       1.00
      C206          C  0.9224305  0.9140841  0.5419632    0.00000       Uiso       1.00
      C207          C  0.9197639  0.9014833  0.5285186    0.00000       Uiso       1.00
      H133          H  0.9561783  0.9034371  0.5200549    0.00000       Uiso       1.00
      H134          H  0.9572944  0.9437794  0.5188487    0.00000       Uiso       1.00
      H135          H  0.9290788  0.9140671  0.5768607    0.00000       Uiso       1.00
      H136          H  0.9266560  0.8488019  0.5762621    0.00000       Uiso       1.00
      C208          C  0.8313847  0.8803980  0.4826716    0.00000       Uiso       1.00
      C209          C  0.8447676  0.9032807  0.4862028    0.00000       Uiso       1.00
      C210          C  0.8702204  0.9134489  0.4911803    0.00000       Uiso       1.00
      C211          C  0.8443744  0.8680013  0.4844044    0.00000       Uiso       1.00
      C212          C  0.8698341  0.8781890  0.4893654    0.00000       Uiso       1.00
      C213          C  0.8832790  0.9015676  0.4920321    0.00000       Uiso       1.00
      H137          H  0.8917442  0.9444907  0.4556292    0.00000       Uiso       1.00
      H138          H  0.8929466  0.9064539  0.4545129    0.00000       Uiso       1.00
      H139          H  0.8349338  0.8499608  0.4827129    0.00000       Uiso       1.00
      H140          H  0.8355405  0.9134030  0.4851407    0.00000       Uiso       1.00
      C214          C  0.9434814  0.9922122  0.4686042    0.00000       Uiso       1.00
      C215          C  0.9198260  0.9792233  0.4562081    0.00000       Uiso       1.00
      C216          C  0.9095148  0.9537629  0.4663940    0.00000       Uiso       1.00
      C217          C  0.9565142  0.9788273  0.4914850    0.00000       Uiso       1.00
      C218          C  0.9462061  0.9533741  0.5016507    0.00000       Uiso       1.00
      C219          C  0.9221163  0.9403162  0.4897702    0.00000       Uiso       1.00
      H141          H  0.8798121  0.9306504  0.4946584    0.00000       Uiso       1.00
      H142          H  0.9201574  0.9318514  0.5326891    0.00000       Uiso       1.00
      H143          H  0.9748037  0.9880516  0.5016078    0.00000       Uiso       1.00
      H144          H  0.9095324  0.9886652  0.4381695    0.00000       Uiso       1.00
      C220          C  0.0088917  0.4029100  0.1492603    0.00000       Uiso       1.00
      C221          C  0.0214392  0.4263693  0.1365509    0.00000       Uiso       1.00
      C222          C  0.0107452  0.4371377  0.1112455    0.00000       Uiso       1.00
      C223          C  0.9854325  0.3903625  0.1365507    0.00000       Uiso       1.00
      C224          C  0.9746875  0.4009726  0.1112465    0.00000       Uiso       1.00
      C225          C  0.9872014  0.4245453  0.0981378    0.00000       Uiso       1.00
      H145          H  0.9481486  0.6901948  0.8671585    0.00000       Uiso       1.00
      H146          H  0.7217653  0.4641157  0.8669493    0.00000       Uiso       1.00
      H147          H  0.9749126  0.3712384  0.1466414    0.00000       Uiso       1.00
      H148          H  0.0405634  0.4368893  0.1466418    0.00000       Uiso       1.00
      C226          C  0.9550736  0.7374616  0.8147079    0.00000       Uiso       1.00
      C227          C  0.9532760  0.7247521  0.8381672    0.00000       Uiso       1.00
      C228          C  0.9493272  0.6994480  0.8489122    0.00000       Uiso       1.00
      C229          C  0.9532760  0.7247521  0.8021605    0.00000       Uiso       1.00
      C230          C  0.9494335  0.6994469  0.8128547    0.00000       Uiso       1.00
      C231          C  0.9472777  0.6863394  0.8363986    0.00000       Uiso       1.00
      H149          H  0.0210983  0.4551514  0.1018329    0.00000       Uiso       1.00
      H150          H  0.0210001  0.4553600  0.8754511    0.00000       Uiso       1.00
      H151          H  0.9547626  0.7348430  0.7830365    0.00000       Uiso       1.00
      H152          H  0.9547625  0.7348429  0.8486871    0.00000       Uiso       1.00
      C232          C  0.6743375  0.4567251  0.8147067    0.00000       Uiso       1.00
      C233          C  0.6870471  0.4585229  0.8021594    0.00000       Uiso       1.00
      C234          C  0.7123514  0.4624726  0.8127693    0.00000       Uiso       1.00
      C235          C  0.6870470  0.4585228  0.8381660    0.00000       Uiso       1.00
      C236          C  0.7123523  0.4623650  0.8489349    0.00000       Uiso       1.00
      C237          C  0.7254599  0.4645217  0.8363422    0.00000       Uiso       1.00
      H153          H  0.9566486  0.3907044  0.8759153    0.00000       Uiso       1.00
      H154          H  0.9564412  0.3908011  0.1019932    0.00000       Uiso       1.00
      H155          H  0.6769562  0.4570362  0.8486859    0.00000       Uiso       1.00
      H156          H  0.6769562  0.4570362  0.7830352    0.00000       Uiso       1.00
      C238          C  0.0088912  0.4029095  0.8685256    0.00000       Uiso       1.00
      C239          C  0.9854320  0.3903620  0.8703231    0.00000       Uiso       1.00
      C240          C  0.9746630  0.4010567  0.8741648    0.00000       Uiso       1.00
      C241          C  0.0214387  0.4263688  0.8703233    0.00000       Uiso       1.00
      C242          C  0.0108285  0.4371139  0.8742722    0.00000       Uiso       1.00
      C243          C  0.9872558  0.4246005  0.8763211    0.00000       Uiso       1.00
      H157          H  0.7216052  0.4636520  0.8025979    0.00000       Uiso       1.00
      H158          H  0.9476817  0.6900342  0.8025018    0.00000       Uiso       1.00
      C244          C  0.9117972  0.5000011  0.9117994    0.00000       Uiso       1.00
      H159          H  0.0405628  0.4368889  0.8688368    0.00000       Uiso       1.00
      H160          H  0.9749120  0.3712379  0.8688364    0.00000       Uiso       1.00
      C245          C  0.9758489  0.4357819  0.0710118    0.00000       Uiso       1.00
      C246          C  0.9786505  0.4608751  0.0602436    0.00000       Uiso       1.00
      C247          C  0.9680880  0.4713511  0.0348702    0.00000       Uiso       1.00
      C248          C  0.9621252  0.4215079  0.0555716    0.00000       Uiso       1.00
      C249          C  0.9515834  0.4319789  0.0302038    0.00000       Uiso       1.00
      C250          C  0.9543749  0.4570843  0.0194072    0.00000       Uiso       1.00
      H161          H  0.9095368  0.6071345  0.8819366    0.00000       Uiso       1.00
      H162          H  0.7962030  0.4523230  0.9024168    0.00000       Uiso       1.00
      H163          H  0.9599401  0.4022580  0.0630610    0.00000       Uiso       1.00
      H164          H  0.9886943  0.4723756  0.0715370    0.00000       Uiso       1.00
      C251          C  0.9427413  0.6592137  0.8477510    0.00000       Uiso       1.00
      C252          C  0.9267486  0.6437729  0.8614720    0.00000       Uiso       1.00
      C253          C  0.9223928  0.6184050  0.8720130    0.00000       Uiso       1.00
      C254          C  0.9542667  0.6484463  0.8449511    0.00000       Uiso       1.00
      C255          C  0.9499311  0.6230727  0.8555131    0.00000       Uiso       1.00
      C256          C  0.9339123  0.6076094  0.8692233    0.00000       Uiso       1.00
      H165          H  0.9703563  0.4906245  0.0273900    0.00000       Uiso       1.00
      H166          H  0.9913268  0.4701394  0.9140606    0.00000       Uiso       1.00
      H167          H  0.9670178  0.6597401  0.8349086    0.00000       Uiso       1.00
      H168          H  0.9171709  0.6512620  0.8636542    0.00000       Uiso       1.00
      C257          C  0.7525856  0.4690582  0.8475789    0.00000       Uiso       1.00
      C258          C  0.7680271  0.4850574  0.8333073    0.00000       Uiso       1.00
      C259          C  0.7933950  0.4894115  0.8437793    0.00000       Uiso       1.00
      C260          C  0.7633519  0.4575250  0.8726696    0.00000       Uiso       1.00
      C261          C  0.7887250  0.4618578  0.8831460    0.00000       Uiso       1.00
      C262          C  0.8041891  0.4778832  0.8688814    0.00000       Uiso       1.00
      H169          H  0.9211804  0.4414644  0.8641240    0.00000       Uiso       1.00
      H170          H  0.9416548  0.4204691  0.0189334    0.00000       Uiso       1.00
      H171          H  0.7520565  0.4447679  0.8841673    0.00000       Uiso       1.00
      H172          H  0.7605387  0.4946394  0.8140596    0.00000       Uiso       1.00
      C263          C  0.9760194  0.4359537  0.8808572    0.00000       Uiso       1.00
      C264          C  0.9509281  0.4331606  0.8693258    0.00000       Uiso       1.00
      C265          C  0.9404519  0.4437254  0.8736575    0.00000       Uiso       1.00
      C266          C  0.9902920  0.4496710  0.8968534    0.00000       Uiso       1.00
      C267          C  0.9798203  0.4602141  0.9012063    0.00000       Uiso       1.00
      C268          C  0.9547175  0.4574322  0.8896801    0.00000       Uiso       1.00
      H173          H  0.8046691  0.5022694  0.8322741    0.00000       Uiso       1.00
      H174          H  0.9594559  0.6155910  0.8532469    0.00000       Uiso       1.00
      H175          H  0.0095404  0.4518507  0.9064338    0.00000       Uiso       1.00
      H176          H  0.9394292  0.4231224  0.8565705    0.00000       Uiso       1.00
      C269          C  0.9432031  0.4683209  0.9922114    0.00000       Uiso       1.00
      C270          C  0.9555997  0.4919753  0.9792209    0.00000       Uiso       1.00
      C271          C  0.9454110  0.5022858  0.9537612    0.00000       Uiso       1.00
      C272          C  0.9203190  0.4552907  0.9788284    0.00000       Uiso       1.00
      C273          C  0.9101496  0.4655982  0.9533759    0.00000       Uiso       1.00
      C274          C  0.9220310  0.4896856  0.9403165    0.00000       Uiso       1.00
      H177          H  0.9171361  0.5319826  0.9306464    0.00000       Uiso       1.00
      H178          H  0.8791046  0.4916311  0.9318530    0.00000       Uiso       1.00
      H179          H  0.9101969  0.4370031  0.9880555    0.00000       Uiso       1.00
      H180          H  0.9736418  0.5022678  0.9886588    0.00000       Uiso       1.00
      C275          C  0.9291252  0.5804136  0.8803939    0.00000       Uiso       1.00
      C276          C  0.9255955  0.5670312  0.9032772    0.00000       Uiso       1.00
      C277          C  0.9206179  0.5415778  0.9134468    0.00000       Uiso       1.00
      C278          C  0.9273928  0.5674231  0.8679976    0.00000       Uiso       1.00
      C279          C  0.9224306  0.5419628  0.8781866    0.00000       Uiso       1.00
      C280          C  0.9197640  0.5285181  0.9015655    0.00000       Uiso       1.00
      H181          H  0.9561784  0.5200545  0.9444901    0.00000       Uiso       1.00
      H182          H  0.9572946  0.5188483  0.9064701    0.00000       Uiso       1.00
      H183          H  0.9290790  0.5768602  0.8499546    0.00000       Uiso       1.00
      H184          H  0.9266561  0.5762616  0.9133955    0.00000       Uiso       1.00
      C281          C  0.8313847  0.4826711  0.8801177    0.00000       Uiso       1.00
      C282          C  0.8447677  0.4862023  0.8670868    0.00000       Uiso       1.00
      C283          C  0.8702204  0.4911798  0.8773941    0.00000       Uiso       1.00
      C284          C  0.8443745  0.4844040  0.9037713    0.00000       Uiso       1.00
      C285          C  0.8698342  0.4893649  0.9140826    0.00000       Uiso       1.00
      C286          C  0.8832791  0.4920317  0.9014823    0.00000       Uiso       1.00
      H185          H  0.8917443  0.4556288  0.9034274    0.00000       Uiso       1.00
      H186          H  0.8929467  0.4545125  0.9437829    0.00000       Uiso       1.00
      H187          H  0.8349338  0.4827124  0.9140627    0.00000       Uiso       1.00
      H188          H  0.8355406  0.4851404  0.8487993    0.00000       Uiso       1.00
      C287          C  0.9434816  0.4686038  0.8944687    0.00000       Uiso       1.00
      C288          C  0.9198261  0.4562077  0.8961980    0.00000       Uiso       1.00
      C289          C  0.9095149  0.4663936  0.9011613    0.00000       Uiso       1.00
      C290          C  0.9565144  0.4914845  0.8980058    0.00000       Uiso       1.00
      C291          C  0.9462062  0.5016503  0.9029851    0.00000       Uiso       1.00
      C292          C  0.9221164  0.4897698  0.9038333    0.00000       Uiso       1.00
      H189          H  0.8798122  0.4946579  0.8663064    0.00000       Uiso       1.00
      H190          H  0.9201576  0.5326887  0.8674203    0.00000       Uiso       1.00
      H191          H  0.9748038  0.5016073  0.8969483    0.00000       Uiso       1.00
      H192          H  0.9095326  0.4381692  0.8945010    0.00000       Uiso       1.00
      C293          C  0.2625371  0.4029057  0.8685218    0.00000       Uiso       1.00
      C294          C  0.2752466  0.4263650  0.8703195    0.00000       Uiso       1.00
      C295          C  0.3005521  0.4371335  0.8741626    0.00000       Uiso       1.00
      C296          C  0.2752466  0.3903583  0.8703195    0.00000       Uiso       1.00
      C297          C  0.3005509  0.4009686  0.8742687    0.00000       Uiso       1.00
      C298          C  0.3136598  0.4245413  0.8763187    0.00000       Uiso       1.00
      H193          H  0.5446402  0.6901928  0.8025972    0.00000       Uiso       1.00
      H194          H  0.5448484  0.4641148  0.8025009    0.00000       Uiso       1.00
      H195          H  0.2651558  0.3712342  0.8688328    0.00000       Uiso       1.00
      H196          H  0.2651558  0.4368849  0.8688328    0.00000       Uiso       1.00
      C299          C  0.5970910  0.7374598  0.8147061    0.00000       Uiso       1.00
      C300          C  0.5736316  0.7247502  0.8021587    0.00000       Uiso       1.00
      C301          C  0.5628865  0.6994460  0.8127688    0.00000       Uiso       1.00
      C302          C  0.6096385  0.7247505  0.8381655    0.00000       Uiso       1.00
      C303          C  0.5989442  0.6994451  0.8489340    0.00000       Uiso       1.00
      C304          C  0.5754002  0.6863375  0.8363417    0.00000       Uiso       1.00
      H197          H  0.3099647  0.4551472  0.8759148    0.00000       Uiso       1.00
      H198          H  0.5363485  0.4553580  0.1019908    0.00000       Uiso       1.00
      H199          H  0.6287626  0.7348412  0.8486855    0.00000       Uiso       1.00
      H200          H  0.5631117  0.7348410  0.7830344    0.00000       Uiso       1.00
      C305          C  0.5970911  0.4567247  0.8147063    0.00000       Uiso       1.00
      C306          C  0.6096385  0.4585224  0.8381656    0.00000       Uiso       1.00
      C307          C  0.5990286  0.4624720  0.8489103    0.00000       Uiso       1.00
      C308          C  0.5736317  0.4585223  0.8021587    0.00000       Uiso       1.00
      C309          C  0.5628628  0.4623642  0.8128531    0.00000       Uiso       1.00
      C310          C  0.5754556  0.4645209  0.8363967    0.00000       Uiso       1.00
      H201          H  0.5358840  0.3907028  0.1018302    0.00000       Uiso       1.00
      H202          H  0.3098041  0.3907973  0.8754470    0.00000       Uiso       1.00
      H203          H  0.5631118  0.4570356  0.7830346    0.00000       Uiso       1.00
      H204          H  0.6287627  0.4570359  0.8486856    0.00000       Uiso       1.00
      C311          C  0.5432741  0.4029076  0.1492579    0.00000       Uiso       1.00
      C312          C  0.5414764  0.3903602  0.1365484    0.00000       Uiso       1.00
      C313          C  0.5376347  0.4010549  0.1112431    0.00000       Uiso       1.00
      C314          C  0.5414764  0.4263669  0.1365484    0.00000       Uiso       1.00
      C315          C  0.5375274  0.4371120  0.1112443    0.00000       Uiso       1.00
      C316          C  0.5354784  0.4245987  0.0981357    0.00000       Uiso       1.00
      H205          H  0.6092001  0.4636514  0.8671563    0.00000       Uiso       1.00
      H206          H  0.6092972  0.6900324  0.8669478    0.00000       Uiso       1.00
      C317          C  0.4999990  0.4999990  0.9117979    0.00000       Uiso       1.00
      H207          H  0.5429630  0.4368868  0.1466392    0.00000       Uiso       1.00
      H208          H  0.5429631  0.3712362  0.1466392    0.00000       Uiso       1.00
      C318          C  0.3407858  0.4357781  0.8808556    0.00000       Uiso       1.00
      C319          C  0.3515541  0.4608713  0.8693323    0.00000       Uiso       1.00
      C320          C  0.3769276  0.4713475  0.8736674    0.00000       Uiso       1.00
      C321          C  0.3562260  0.4215043  0.8968461    0.00000       Uiso       1.00
      C322          C  0.3815940  0.4319755  0.9012012    0.00000       Uiso       1.00
      C323          C  0.3923905  0.4570808  0.8896840    0.00000       Uiso       1.00
      H209          H  0.5298618  0.6071326  0.8322673    0.00000       Uiso       1.00
      H210          H  0.5093811  0.4523216  0.8532640    0.00000       Uiso       1.00
      H211          H  0.3487366  0.4022543  0.9064215    0.00000       Uiso       1.00
      H212          H  0.3402607  0.4723718  0.8565822    0.00000       Uiso       1.00
      C324          C  0.5640478  0.6592118  0.8475785    0.00000       Uiso       1.00
      C325          C  0.5503266  0.6437710  0.8333055    0.00000       Uiso       1.00
      C326          C  0.5397856  0.6184031  0.8437765    0.00000       Uiso       1.00
      C327          C  0.5668477  0.6484442  0.8726712    0.00000       Uiso       1.00
      C328          C  0.5562856  0.6230707  0.8831472    0.00000       Uiso       1.00
      C329          C  0.5425752  0.6076074  0.8688813    0.00000       Uiso       1.00
      H213          H  0.3844078  0.4906209  0.8641425    0.00000       Uiso       1.00
      H214          H  0.4977389  0.4701376  0.0189282    0.00000       Uiso       1.00
      H215          H  0.5768903  0.6597382  0.8841711    0.00000       Uiso       1.00
      H216          H  0.5481443  0.6512602  0.8140563    0.00000       Uiso       1.00
      C330          C  0.5642191  0.4690572  0.8477493    0.00000       Uiso       1.00
      C331          C  0.5784907  0.4850564  0.8614634    0.00000       Uiso       1.00
      C332          C  0.5680188  0.4894104  0.8720053    0.00000       Uiso       1.00
      C333          C  0.5391282  0.4575239  0.8449579    0.00000       Uiso       1.00
      C334          C  0.5286520  0.4618564  0.8555220    0.00000       Uiso       1.00
      C335          C  0.5429166  0.4778819  0.8692254    0.00000       Uiso       1.00
      H217          H  0.5476753  0.4414630  0.0273933    0.00000       Uiso       1.00
      H218          H  0.3928643  0.4204656  0.9140528    0.00000       Uiso       1.00
      H219          H  0.5276304  0.4447668  0.8349219    0.00000       Uiso       1.00
      H220          H  0.5977386  0.4946385  0.8636408    0.00000       Uiso       1.00
      C336          C  0.5309423  0.4359520  0.0710101    0.00000       Uiso       1.00
      C337          C  0.5424737  0.4331591  0.0602431    0.00000       Uiso       1.00
      C338          C  0.5381418  0.4437239  0.0348703    0.00000       Uiso       1.00
      C339          C  0.5149460  0.4496691  0.0555691    0.00000       Uiso       1.00
      C340          C  0.5105931  0.4602122  0.0302014    0.00000       Uiso       1.00
      C341          C  0.5221192  0.4574306  0.0194065    0.00000       Uiso       1.00
      H221          H  0.5795242  0.5022683  0.8819267    0.00000       Uiso       1.00
      H222          H  0.5585519  0.6155889  0.9024200    0.00000       Uiso       1.00
      H223          H  0.5053657  0.4518487  0.0630576    0.00000       Uiso       1.00
      H224          H  0.5552288  0.4231209  0.0715377    0.00000       Uiso       1.00
      C342          C  0.4195867  0.4683183  0.8944718    0.00000       Uiso       1.00
      C343          C  0.4325773  0.4919727  0.8962047    0.00000       Uiso       1.00
      C344          C  0.4580371  0.5022833  0.9011653    0.00000       Uiso       1.00
      C345          C  0.4329696  0.4552883  0.8980009    0.00000       Uiso       1.00
      C346          C  0.4584222  0.4655959  0.9029766    0.00000       Uiso       1.00
      C347          C  0.4714817  0.4896833  0.9038302    0.00000       Uiso       1.00
      H225          H  0.4811519  0.5319803  0.8663085    0.00000       Uiso       1.00
      H226          H  0.4799451  0.4916291  0.8674216    0.00000       Uiso       1.00
      H227          H  0.4237425  0.4370006  0.8969393    0.00000       Uiso       1.00
      H228          H  0.4231394  0.5022651  0.8945163    0.00000       Uiso       1.00
      C348          C  0.5314046  0.5804116  0.8801193    0.00000       Uiso       1.00
      C349          C  0.5085212  0.5670291  0.8670886    0.00000       Uiso       1.00
      C350          C  0.4983516  0.5415756  0.8773948    0.00000       Uiso       1.00
      C351          C  0.5438010  0.5674211  0.9037737    0.00000       Uiso       1.00
      C352          C  0.5336119  0.5419608  0.9140827    0.00000       Uiso       1.00
      C353          C  0.5102329  0.5285160  0.9014819    0.00000       Uiso       1.00
      H229          H  0.4673083  0.5200520  0.9034353    0.00000       Uiso       1.00
      H230          H  0.5053285  0.5188459  0.9437778    0.00000       Uiso       1.00
      H231          H  0.5618441  0.5768583  0.9140659    0.00000       Uiso       1.00
      H232          H  0.4984028  0.5762594  0.8488004    0.00000       Uiso       1.00
      C354          C  0.5316804  0.4826696  0.8803970    0.00000       Uiso       1.00
      C355          C  0.5447115  0.4862008  0.9032798    0.00000       Uiso       1.00
      C356          C  0.5344042  0.4911781  0.9134478    0.00000       Uiso       1.00
      C357          C  0.5080267  0.4844023  0.8680001    0.00000       Uiso       1.00
      C358          C  0.4977155  0.4893631  0.8781877    0.00000       Uiso       1.00
      C359          C  0.5103159  0.4920297  0.9015663    0.00000       Uiso       1.00
      H233          H  0.5083709  0.4556268  0.9444894    0.00000       Uiso       1.00
      H234          H  0.4680151  0.4545103  0.9064523    0.00000       Uiso       1.00
      H235          H  0.4977353  0.4827107  0.8499597    0.00000       Uiso       1.00
      H236          H  0.5629990  0.4851389  0.9134022    0.00000       Uiso       1.00
      C360          C  0.5173298  0.4686015  0.9922107    0.00000       Uiso       1.00
      C361          C  0.5156003  0.4562055  0.9792217    0.00000       Uiso       1.00
      C362          C  0.5106371  0.4663915  0.9537614    0.00000       Uiso       1.00
      C363          C  0.5137928  0.4914822  0.9788256    0.00000       Uiso       1.00
      C364          C  0.5088134  0.5016479  0.9533724    0.00000       Uiso       1.00
      C365          C  0.5079651  0.4897676  0.9403147    0.00000       Uiso       1.00
      H237          H  0.5454921  0.4946562  0.9306493    0.00000       Uiso       1.00
      H238          H  0.5443782  0.5326867  0.9318501    0.00000       Uiso       1.00
      H239          H  0.5148503  0.5016049  0.9880499    0.00000       Uiso       1.00
      H240          H  0.5172973  0.4381671  0.9886638    0.00000       Uiso       1.00
      C366          C  0.0088914  0.1492599  0.8685256    0.00000       Uiso       1.00
      C367          C  0.0214389  0.1365504  0.8703233    0.00000       Uiso       1.00
      C368          C  0.0107449  0.1112450  0.8741663    0.00000       Uiso       1.00
      C369          C  0.9854321  0.1365503  0.8703231    0.00000       Uiso       1.00
      C370          C  0.9746871  0.1112460  0.8742720    0.00000       Uiso       1.00
      C371          C  0.9872010  0.0981373  0.8763220    0.00000       Uiso       1.00
      H241          H  0.9481485  0.8671576  0.8025992    0.00000       Uiso       1.00
      H242          H  0.7217650  0.8669484  0.8025018    0.00000       Uiso       1.00
      H243          H  0.9749122  0.1466409  0.8688365    0.00000       Uiso       1.00
      H244          H  0.0405630  0.1466413  0.8688368    0.00000       Uiso       1.00
      C372          C  0.9550735  0.8147071  0.8147079    0.00000       Uiso       1.00
      C373          C  0.9532759  0.8381663  0.8021605    0.00000       Uiso       1.00
      C374          C  0.9493271  0.8489114  0.8127707    0.00000       Uiso       1.00
      C375          C  0.9532759  0.8021596  0.8381672    0.00000       Uiso       1.00
      C376          C  0.9494334  0.8128538  0.8489358    0.00000       Uiso       1.00
      C377          C  0.9472775  0.8363976  0.8363435    0.00000       Uiso       1.00
      H245          H  0.0210980  0.1018324  0.8759183    0.00000       Uiso       1.00
      H246          H  0.0210003  0.8754507  0.1019933    0.00000       Uiso       1.00
      H247          H  0.9547625  0.7830356  0.8486871    0.00000       Uiso       1.00
      H248          H  0.9547626  0.8486863  0.7830365    0.00000       Uiso       1.00
      C378          C  0.6743371  0.8147057  0.8147067    0.00000       Uiso       1.00
      C379          C  0.6870467  0.8021584  0.8381660    0.00000       Uiso       1.00
      C380          C  0.7123511  0.8127684  0.8489109    0.00000       Uiso       1.00
      C381          C  0.6870468  0.8381651  0.8021594    0.00000       Uiso       1.00
      C382          C  0.7123521  0.8489340  0.8128539    0.00000       Uiso       1.00
      C383          C  0.7254596  0.8363413  0.8363975    0.00000       Uiso       1.00
      H249          H  0.9566488  0.8759150  0.1018323    0.00000       Uiso       1.00
      H250          H  0.9564407  0.1019928  0.8754503    0.00000       Uiso       1.00
      H251          H  0.6769559  0.8486850  0.7830352    0.00000       Uiso       1.00
      H252          H  0.6769559  0.7830343  0.8486859    0.00000       Uiso       1.00
      C384          C  0.0088914  0.8685251  0.1492603    0.00000       Uiso       1.00
      C385          C  0.9854321  0.8703227  0.1365507    0.00000       Uiso       1.00
      C386          C  0.9746632  0.8741644  0.1112453    0.00000       Uiso       1.00
      C387          C  0.0214388  0.8703229  0.1365508    0.00000       Uiso       1.00
      C388          C  0.0108288  0.8742719  0.1112466    0.00000       Uiso       1.00
      C389          C  0.9872560  0.8763208  0.0981380    0.00000       Uiso       1.00
      H253          H  0.7216049  0.8025969  0.8671568    0.00000       Uiso       1.00
      H254          H  0.9476815  0.8025008  0.8669495    0.00000       Uiso       1.00
      C390          C  0.9117968  0.9117984  0.9118000    0.00000       Uiso       1.00
      H255          H  0.0405630  0.8688364  0.1466417    0.00000       Uiso       1.00
      H256          H  0.9749122  0.8688360  0.1466414    0.00000       Uiso       1.00
      C391          C  0.9758485  0.0710114  0.8808588    0.00000       Uiso       1.00
      C392          C  0.9786502  0.0602431  0.8693355    0.00000       Uiso       1.00
      C393          C  0.9680878  0.0348697  0.8736703    0.00000       Uiso       1.00
      C394          C  0.9621248  0.0555712  0.8968492    0.00000       Uiso       1.00
      C395          C  0.9515830  0.0302033  0.9012041    0.00000       Uiso       1.00
      C396          C  0.9543746  0.0194068  0.8896868    0.00000       Uiso       1.00
      H257          H  0.9095367  0.8819358  0.8322692    0.00000       Uiso       1.00
      H258          H  0.7962027  0.9024158  0.8532653    0.00000       Uiso       1.00
      H259          H  0.9599397  0.0630605  0.9064246    0.00000       Uiso       1.00
      H260          H  0.9886940  0.0715365  0.8565854    0.00000       Uiso       1.00
      C397          C  0.9427412  0.8477501  0.8475804    0.00000       Uiso       1.00
      C398          C  0.9267485  0.8614711  0.8333074    0.00000       Uiso       1.00
      C399          C  0.9223925  0.8720120  0.8437783    0.00000       Uiso       1.00
      C400          C  0.9542665  0.8449503  0.8726732    0.00000       Uiso       1.00
      C401          C  0.9499309  0.8555122  0.8831491    0.00000       Uiso       1.00
      C402          C  0.9339121  0.8692225  0.8688833    0.00000       Uiso       1.00
      H261          H  0.9703559  0.0273895  0.8641454    0.00000       Uiso       1.00
      H262          H  0.9913272  0.9140602  0.0189307    0.00000       Uiso       1.00
      H263          H  0.9670177  0.8349077  0.8841730    0.00000       Uiso       1.00
      H264          H  0.9171708  0.8636533  0.8140581    0.00000       Uiso       1.00
      C403          C  0.7525852  0.8475779  0.8477502    0.00000       Uiso       1.00
      C404          C  0.7680268  0.8333064  0.8614643    0.00000       Uiso       1.00
      C405          C  0.7933947  0.8437783  0.8720064    0.00000       Uiso       1.00
      C406          C  0.7633516  0.8726687  0.8449591    0.00000       Uiso       1.00
      C407          C  0.7887247  0.8831450  0.8555234    0.00000       Uiso       1.00
      C408          C  0.8041888  0.8688805  0.8692268    0.00000       Uiso       1.00
      H265          H  0.9211807  0.8641237  0.0273952    0.00000       Uiso       1.00
      H266          H  0.9416544  0.0189329  0.9140556    0.00000       Uiso       1.00
      H267          H  0.7520562  0.8841664  0.8349230    0.00000       Uiso       1.00
      H268          H  0.7605384  0.8140585  0.8636417    0.00000       Uiso       1.00
      C409          C  0.9760197  0.8808568  0.0710123    0.00000       Uiso       1.00
      C410          C  0.9509283  0.8693254  0.0602452    0.00000       Uiso       1.00
      C411          C  0.9404522  0.8736572  0.0348724    0.00000       Uiso       1.00
      C412          C  0.9902923  0.8968531  0.0555715    0.00000       Uiso       1.00
      C413          C  0.9798207  0.9012060  0.0302038    0.00000       Uiso       1.00
      C414          C  0.9547179  0.8896798  0.0194087    0.00000       Uiso       1.00
      H269          H  0.8046687  0.8322731  0.8819279    0.00000       Uiso       1.00
      H270          H  0.9594557  0.8532459  0.9024220    0.00000       Uiso       1.00
      H271          H  0.0095406  0.9064334  0.0630601    0.00000       Uiso       1.00
      H272          H  0.9394295  0.8565702  0.0715396    0.00000       Uiso       1.00
      C415          C  0.9432027  0.9922105  0.8944744    0.00000       Uiso       1.00
      C416          C  0.9555994  0.9792200  0.8962074    0.00000       Uiso       1.00
      C417          C  0.9454107  0.9537602  0.9011678    0.00000       Uiso       1.00
      C418          C  0.9203187  0.9788275  0.8980033    0.00000       Uiso       1.00
      C419          C  0.9101492  0.9533749  0.9029788    0.00000       Uiso       1.00
      C420          C  0.9220307  0.9403156  0.9038324    0.00000       Uiso       1.00
      H273          H  0.9171358  0.9306455  0.8663106    0.00000       Uiso       1.00
      H274          H  0.8791043  0.9318520  0.8674235    0.00000       Uiso       1.00
      H275          H  0.9101965  0.9880545  0.8969417    0.00000       Uiso       1.00
      H276          H  0.9736415  0.9886580  0.8945192    0.00000       Uiso       1.00
      C421          C  0.9291250  0.8803930  0.8801214    0.00000       Uiso       1.00
      C422          C  0.9255953  0.9032762  0.8670907    0.00000       Uiso       1.00
      C423          C  0.9206177  0.9134458  0.8773969    0.00000       Uiso       1.00
      C424          C  0.9273925  0.8679966  0.9037757    0.00000       Uiso       1.00
      C425          C  0.9224302  0.8781856  0.9140847    0.00000       Uiso       1.00
      C426          C  0.9197637  0.9015645  0.9014839    0.00000       Uiso       1.00
      H277          H  0.9561781  0.9444891  0.9034377    0.00000       Uiso       1.00
      H278          H  0.9572942  0.9064690  0.9437801    0.00000       Uiso       1.00
      H279          H  0.9290787  0.8499537  0.9140677    0.00000       Uiso       1.00
      H280          H  0.9266558  0.9133946  0.8488025    0.00000       Uiso       1.00
      C427          C  0.8313844  0.8801168  0.8803985    0.00000       Uiso       1.00
      C428          C  0.8447674  0.8670858  0.9032813    0.00000       Uiso       1.00
      C429          C  0.8702201  0.8773931  0.9134495    0.00000       Uiso       1.00
      C430          C  0.8443742  0.9037704  0.8680018    0.00000       Uiso       1.00
      C431          C  0.8698339  0.9140817  0.8781896    0.00000       Uiso       1.00
      C432          C  0.8832787  0.9014814  0.9015682    0.00000       Uiso       1.00
      H281          H  0.8917439  0.9034264  0.9444913    0.00000       Uiso       1.00
      H282          H  0.8929463  0.9437820  0.9064544    0.00000       Uiso       1.00
      H283          H  0.8349336  0.9140618  0.8499614    0.00000       Uiso       1.00
      H284          H  0.8355402  0.8487984  0.9134036    0.00000       Uiso       1.00
      C433          C  0.9434812  0.8944677  0.9922128    0.00000       Uiso       1.00
      C434          C  0.9198256  0.8961970  0.9792238    0.00000       Uiso       1.00
      C435          C  0.9095145  0.9011602  0.9537634    0.00000       Uiso       1.00
      C436          C  0.9565140  0.8980049  0.9788279    0.00000       Uiso       1.00
      C437          C  0.9462059  0.9029842  0.9533746    0.00000       Uiso       1.00
      C438          C  0.9221160  0.9038324  0.9403168    0.00000       Uiso       1.00
      H285          H  0.8798119  0.8663055  0.9306509    0.00000       Uiso       1.00
      H286          H  0.9201572  0.8674193  0.9318520    0.00000       Uiso       1.00
      H287          H  0.9748035  0.8969474  0.9880522    0.00000       Uiso       1.00
      H288          H  0.9095321  0.8945001  0.9886658    0.00000       Uiso       1.00
        B1          B  0.5993639  0.7773611  0.4564414    0.00000       Uiso       1.00
        N1          N  0.6107364  0.8010600  0.4564504    0.00000       Uiso       1.00
        N2          N  0.6467710  0.8010604  0.4564506    0.00000       Uiso       1.00
        B2          B  0.6344355  0.8124327  0.4564416    0.00000       Uiso       1.00
        B3          B  0.6344355  0.7773615  0.4564416    0.00000       Uiso       1.00
        N3          N  0.6107365  0.7650259  0.4564504    0.00000       Uiso       1.00
        B4          B  0.6344360  0.4564412  0.7773618    0.00000       Uiso       1.00
        N4          N  0.6467714  0.4564502  0.8010608    0.00000       Uiso       1.00
        N5          N  0.6107371  0.4564500  0.8010608    0.00000       Uiso       1.00
        B5          B  0.6344360  0.4564412  0.8124332    0.00000       Uiso       1.00
        B6          B  0.5993646  0.4564410  0.7773618    0.00000       Uiso       1.00
        N6          N  0.6107371  0.4564500  0.7650265    0.00000       Uiso       1.00
      C439          C  0.5477512  0.3629345  0.3831242    0.00000       Uiso       1.00
      C440          C  0.5490066  0.3421019  0.3842266    0.00000       Uiso       1.00
      C441          C  0.5514466  0.3221070  0.4059943    0.00000       Uiso       1.00
      C442          C  0.5514357  0.3009197  0.4064298    0.00000       Uiso       1.00
      C443          C  0.5475938  0.2986973  0.3847489    0.00000       Uiso       1.00
      C444          C  0.5448011  0.3189408  0.3629331    0.00000       Uiso       1.00
      C445          C  0.5472029  0.3412852  0.3625992    0.00000       Uiso       1.00
        O1          O  0.5482774  0.3662775  0.4023129    0.00000       Uiso       1.00
      H289          H  0.5533860  0.3229979  0.4227070    0.00000       Uiso       1.00
      H290          H  0.5541949  0.2863376  0.4238606    0.00000       Uiso       1.00
      H291          H  0.5391740  0.3168400  0.3457722    0.00000       Uiso       1.00
      C446          C  0.5478158  0.3831278  0.2135243    0.00000       Uiso       1.00
      C447          C  0.5490859  0.3842329  0.2345165    0.00000       Uiso       1.00
      C448          C  0.5515136  0.4059958  0.2351842    0.00000       Uiso       1.00
      C449          C  0.5514955  0.4064248  0.2559250    0.00000       Uiso       1.00
      C450          C  0.5476522  0.3847418  0.2759837    0.00000       Uiso       1.00
      C451          C  0.5448837  0.3629340  0.2747650    0.00000       Uiso       1.00
      C452          C  0.5472957  0.3626083  0.2551579    0.00000       Uiso       1.00
        O2          O  0.5483089  0.4023103  0.1915095    0.00000       Uiso       1.00
      H292          H  0.5534369  0.4227072  0.2195183    0.00000       Uiso       1.00
      H293          H  0.5542426  0.4238527  0.2558315    0.00000       Uiso       1.00
      H294          H  0.5392584  0.3457686  0.2883917    0.00000       Uiso       1.00
      C453          C  0.5477936  0.2135113  0.3629646    0.00000       Uiso       1.00
      C454          C  0.5490825  0.2345070  0.3421476    0.00000       Uiso       1.00
      C455          C  0.5515445  0.2351784  0.3221639    0.00000       Uiso       1.00
      C456          C  0.5515569  0.2559274  0.3009824    0.00000       Uiso       1.00
      C457          C  0.5477170  0.2759918  0.2987572    0.00000       Uiso       1.00
      C458          C  0.5449155  0.2747709  0.3189981    0.00000       Uiso       1.00
      C459          C  0.5472860  0.2551486  0.3413341    0.00000       Uiso       1.00
        O3          O  0.5483155  0.1915074  0.3663003    0.00000       Uiso       1.00
      H295          H  0.5534706  0.2195035  0.3230591    0.00000       Uiso       1.00
      H296          H  0.5543219  0.2558373  0.2864038    0.00000       Uiso       1.00
      H297          H  0.5392970  0.2884109  0.3168991    0.00000       Uiso       1.00
      C460          C  0.5446190  0.2125140  0.3822234    0.00000       Uiso       1.00
      C461          C  0.5440374  0.2329229  0.3826837    0.00000       Uiso       1.00
      C462          C  0.5413795  0.2319959  0.4026833    0.00000       Uiso       1.00
      C463          C  0.5417715  0.2528944  0.4032044    0.00000       Uiso       1.00
      C464          C  0.5462468  0.2756115  0.3843478    0.00000       Uiso       1.00
      C465          C  0.5494317  0.2762462  0.3646350    0.00000       Uiso       1.00
      C466          C  0.5465829  0.2549343  0.3625352    0.00000       Uiso       1.00
        O4          O  0.5428093  0.1897814  0.4005777    0.00000       Uiso       1.00
      H298          H  0.5389006  0.2149373  0.4178964    0.00000       Uiso       1.00
      H299          H  0.5387371  0.2509821  0.4186196    0.00000       Uiso       1.00
      H300          H  0.5555804  0.2936477  0.3515140    0.00000       Uiso       1.00
      C467          C  0.5446832  0.3616998  0.2125417    0.00000       Uiso       1.00
      C468          C  0.5441243  0.3402563  0.2329592    0.00000       Uiso       1.00
      C469          C  0.5415191  0.3185367  0.2320528    0.00000       Uiso       1.00
      C470          C  0.5419275  0.2975179  0.2529582    0.00000       Uiso       1.00
      C471          C  0.5463617  0.2981267  0.2756648    0.00000       Uiso       1.00
      C472          C  0.5494975  0.3203809  0.2762782    0.00000       Uiso       1.00
      C473          C  0.5466363  0.3409332  0.2549586    0.00000       Uiso       1.00
        O5          O  0.5428809  0.3642690  0.1898125    0.00000       Uiso       1.00
      H301          H  0.5390577  0.3179016  0.2150008    0.00000       Uiso       1.00
      H302          H  0.5389298  0.2809899  0.2510540    0.00000       Uiso       1.00
      H303          H  0.5556282  0.3222610  0.2936696    0.00000       Uiso       1.00
      C474          C  0.5446162  0.3822105  0.3616928    0.00000       Uiso       1.00
      C475          C  0.5440411  0.3826672  0.3402481    0.00000       Uiso       1.00
      C476          C  0.5414429  0.4026910  0.3185332    0.00000       Uiso       1.00
      C477          C  0.5418549  0.4032181  0.2975139    0.00000       Uiso       1.00
      C478          C  0.5462763  0.3843302  0.2981162    0.00000       Uiso       1.00
      C479          C  0.5493947  0.3645869  0.3203661    0.00000       Uiso       1.00
      C480          C  0.5465392  0.3624966  0.3409211    0.00000       Uiso       1.00
        O6          O  0.5428406  0.4005833  0.3642636    0.00000       Uiso       1.00
      H304          H  0.5389912  0.4179183  0.3179075    0.00000       Uiso       1.00
      H305          H  0.5388729  0.4186629  0.2809931    0.00000       Uiso       1.00
      H306          H  0.5555132  0.3514371  0.3222419    0.00000       Uiso       1.00
        B7          B  0.5451531  0.3902531  0.3901202    0.00000       Uiso       1.00
        B8          B  0.5451718  0.3901202  0.1765932    0.00000       Uiso       1.00
        B9          B  0.5451488  0.1765803  0.3902554    0.00000       Uiso       1.00
      C481          C  0.1983034  0.3831223  0.3629328    0.00000       Uiso       1.00
      C482          C  0.1773177  0.3842246  0.3421001    0.00000       Uiso       1.00
      C483          C  0.1766506  0.4059923  0.3221052    0.00000       Uiso       1.00
      C484          C  0.1559095  0.4064277  0.3009178    0.00000       Uiso       1.00
      C485          C  0.1358480  0.3847468  0.2986952    0.00000       Uiso       1.00
      C486          C  0.1370684  0.3629309  0.3189388    0.00000       Uiso       1.00
      C487          C  0.1566772  0.3625972  0.3412832    0.00000       Uiso       1.00
        O7          O  0.2203089  0.4023111  0.3662758    0.00000       Uiso       1.00
      H307          H  0.1923147  0.4227050  0.3229961    0.00000       Uiso       1.00
      H308          H  0.1559991  0.4238585  0.2863357    0.00000       Uiso       1.00
      H309          H  0.1234339  0.3457700  0.3168379    0.00000       Uiso       1.00
      C488          C  0.0488316  0.2135217  0.3831252    0.00000       Uiso       1.00
      C489          C  0.0696589  0.2345139  0.3842305    0.00000       Uiso       1.00
      C490          C  0.0896617  0.2351817  0.4059934    0.00000       Uiso       1.00
      C491          C  0.1108498  0.2559227  0.4064226    0.00000       Uiso       1.00
      C492          C  0.1130689  0.2759814  0.3847396    0.00000       Uiso       1.00
      C493          C  0.0928108  0.2747626  0.3629317    0.00000       Uiso       1.00
      C494          C  0.0704659  0.2551554  0.3626058    0.00000       Uiso       1.00
        O8          O  0.0455062  0.1915069  0.4023077    0.00000       Uiso       1.00
      H310          H  0.0887840  0.2195159  0.4227048    0.00000       Uiso       1.00
      H311          H  0.1254372  0.2558292  0.4238506    0.00000       Uiso       1.00
      H312          H  0.0948975  0.2883894  0.3457663    0.00000       Uiso       1.00
      C495          C  0.0286775  0.3629619  0.2135087    0.00000       Uiso       1.00
      C496          C  0.0275673  0.3421449  0.2345044    0.00000       Uiso       1.00
      C497          C  0.0057929  0.3221611  0.2351756    0.00000       Uiso       1.00
      C498          C  0.0053481  0.3009796  0.2559246    0.00000       Uiso       1.00
      C499          C  0.0270272  0.2987545  0.2759892    0.00000       Uiso       1.00
      C500          C  0.0488488  0.3189955  0.2747684    0.00000       Uiso       1.00
      C501          C  0.0491921  0.3413316  0.2551461    0.00000       Uiso       1.00
        O9          O  0.0094874  0.3662976  0.1915047    0.00000       Uiso       1.00
      H313          H  0.9890872  0.3230562  0.2195006    0.00000       Uiso       1.00
      H314          H  0.9879144  0.2864009  0.2558344    0.00000       Uiso       1.00
      H315          H  0.0660084  0.3168966  0.2884085    0.00000       Uiso       1.00
      C502          C  0.0501137  0.3822208  0.2125115    0.00000       Uiso       1.00
      C503          C  0.0715646  0.3826813  0.2329205    0.00000       Uiso       1.00
      C504          C  0.0932954  0.4026810  0.2319937    0.00000       Uiso       1.00
      C505          C  0.1143229  0.4032022  0.2528923    0.00000       Uiso       1.00
      C506          C  0.1137081  0.3843455  0.2756094    0.00000       Uiso       1.00
      C507          C  0.0914449  0.3646326  0.2762439    0.00000       Uiso       1.00
      C508          C  0.0708820  0.3625327  0.2549319    0.00000       Uiso       1.00
       O10          O  0.0475452  0.4005752  0.1897789    0.00000       Uiso       1.00
      H316          H  0.0939287  0.4178941  0.2149351    0.00000       Uiso       1.00
      H317          H  0.1308603  0.4186175  0.2509801    0.00000       Uiso       1.00
      H318          H  0.0895767  0.3515116  0.2936454    0.00000       Uiso       1.00
      C509          C  0.0295536  0.2125390  0.3616972    0.00000       Uiso       1.00
      C510          C  0.0290864  0.2329565  0.3402537    0.00000       Uiso       1.00
      C511          C  0.0090656  0.2320501  0.3185340    0.00000       Uiso       1.00
      C512          C  0.0085437  0.2529554  0.2975152    0.00000       Uiso       1.00
      C513          C  0.0274251  0.2756621  0.2981240    0.00000       Uiso       1.00
      C514          C  0.0471569  0.2762756  0.3203783    0.00000       Uiso       1.00
      C515          C  0.0492508  0.2549560  0.3409306    0.00000       Uiso       1.00
       O11          O  0.0111957  0.1898097  0.3642662    0.00000       Uiso       1.00
      H319          H  0.9938400  0.2149980  0.3178988    0.00000       Uiso       1.00
      H320          H  0.9931094  0.2510512  0.2809871    0.00000       Uiso       1.00
      H321          H  0.0602976  0.2936670  0.3222584    0.00000       Uiso       1.00
      C516          C  0.1992831  0.3616910  0.3822088    0.00000       Uiso       1.00
      C517          C  0.1788700  0.3402461  0.3826654    0.00000       Uiso       1.00
      C518          C  0.1797771  0.3185312  0.4026892    0.00000       Uiso       1.00
      C519          C  0.1588728  0.2975118  0.4032162    0.00000       Uiso       1.00
      C520          C  0.1361656  0.2981140  0.3843281    0.00000       Uiso       1.00
      C521          C  0.1355539  0.3203639  0.3645848    0.00000       Uiso       1.00
      C522          C  0.1568742  0.3409190  0.3624946    0.00000       Uiso       1.00
       O12          O  0.2220023  0.3642618  0.4005817    0.00000       Uiso       1.00
      H322          H  0.1968306  0.3179057  0.4179166    0.00000       Uiso       1.00
      H323          H  0.1607788  0.2809910  0.4186610    0.00000       Uiso       1.00
      H324          H  0.1181612  0.3222395  0.3514349    0.00000       Uiso       1.00
       B10          B  0.2352162  0.3901185  0.3902516    0.00000       Uiso       1.00
       B11          B  0.0215368  0.1765905  0.3901175    0.00000       Uiso       1.00
       B12          B  0.0216821  0.3902527  0.1765776    0.00000       Uiso       1.00
       B13          B  0.5993637  0.7773607  0.7773617    0.00000       Uiso       1.00
        N7          N  0.6107363  0.7650254  0.8010606    0.00000       Uiso       1.00
        N8          N  0.6467708  0.8010597  0.8010610    0.00000       Uiso       1.00
       B14          B  0.6344354  0.7773609  0.8124333    0.00000       Uiso       1.00
       B15          B  0.6344354  0.8124321  0.7773620    0.00000       Uiso       1.00
        N9          N  0.6107363  0.8010596  0.7650265    0.00000       Uiso       1.00
      C523          C  0.1983031  0.8640437  0.3831225    0.00000       Uiso       1.00
      C524          C  0.1773174  0.8627882  0.3842247    0.00000       Uiso       1.00
      C525          C  0.1766502  0.8603482  0.4059924    0.00000       Uiso       1.00
      C526          C  0.1559092  0.8603590  0.4064278    0.00000       Uiso       1.00
      C527          C  0.1358477  0.8642008  0.3847469    0.00000       Uiso       1.00
      C528          C  0.1370681  0.8669935  0.3629310    0.00000       Uiso       1.00
      C529          C  0.1566769  0.8645918  0.3625973    0.00000       Uiso       1.00
       O13          O  0.2203086  0.8635176  0.4023113    0.00000       Uiso       1.00
      H325          H  0.1923144  0.8584089  0.4227052    0.00000       Uiso       1.00
      H326          H  0.1559987  0.8575999  0.4238586    0.00000       Uiso       1.00
      H327          H  0.1234335  0.8726206  0.3457702    0.00000       Uiso       1.00
      C530          C  0.0488313  0.8639786  0.2135218    0.00000       Uiso       1.00
      C531          C  0.0696586  0.8627086  0.2345141    0.00000       Uiso       1.00
      C532          C  0.0896615  0.8602809  0.2351819    0.00000       Uiso       1.00
      C533          C  0.1108496  0.8602991  0.2559228    0.00000       Uiso       1.00
      C534          C  0.1130686  0.8641424  0.2759815    0.00000       Uiso       1.00
      C535          C  0.0928105  0.8669108  0.2747627    0.00000       Uiso       1.00
      C536          C  0.0704656  0.8644987  0.2551556    0.00000       Uiso       1.00
       O14          O  0.0455059  0.8634855  0.1915070    0.00000       Uiso       1.00
      H328          H  0.0887838  0.8583576  0.2195160    0.00000       Uiso       1.00
      H329          H  0.1254370  0.8575521  0.2558294    0.00000       Uiso       1.00
      H330          H  0.0948971  0.8725361  0.2883895    0.00000       Uiso       1.00
      C537          C  0.0286771  0.8640005  0.3629620    0.00000       Uiso       1.00
      C538          C  0.0275669  0.8627116  0.3421450    0.00000       Uiso       1.00
      C539          C  0.0057925  0.8602496  0.3221612    0.00000       Uiso       1.00
      C540          C  0.0053477  0.8602372  0.3009798    0.00000       Uiso       1.00
      C541          C  0.0270269  0.8640772  0.2987546    0.00000       Uiso       1.00
      C542          C  0.0488484  0.8668787  0.3189956    0.00000       Uiso       1.00
      C543          C  0.0491917  0.8645083  0.3413317    0.00000       Uiso       1.00
       O15          O  0.0094869  0.8634785  0.3662976    0.00000       Uiso       1.00
      H331          H  0.9890867  0.8583235  0.3230563    0.00000       Uiso       1.00
      H332          H  0.9879140  0.8574722  0.2864010    0.00000       Uiso       1.00
      H333          H  0.0660080  0.8724973  0.3168968    0.00000       Uiso       1.00
      C544          C  0.0501132  0.8671752  0.3822210    0.00000       Uiso       1.00
      C545          C  0.0715642  0.8677569  0.3826814    0.00000       Uiso       1.00
      C546          C  0.0932949  0.8704149  0.4026811    0.00000       Uiso       1.00
      C547          C  0.1143225  0.8700230  0.4032023    0.00000       Uiso       1.00
      C548          C  0.1137078  0.8655477  0.3843457    0.00000       Uiso       1.00
      C549          C  0.0914445  0.8623627  0.3646327    0.00000       Uiso       1.00
      C550          C  0.0708816  0.8652115  0.3625329    0.00000       Uiso       1.00
       O16          O  0.0475447  0.8689849  0.4005753    0.00000       Uiso       1.00
      H334          H  0.0939282  0.8728937  0.4178942    0.00000       Uiso       1.00
      H335          H  0.1308599  0.8730574  0.4186176    0.00000       Uiso       1.00
      H336          H  0.0895763  0.8562140  0.3515117    0.00000       Uiso       1.00
      C551          C  0.0295532  0.8671110  0.2125391    0.00000       Uiso       1.00
      C552          C  0.0290861  0.8676699  0.2329566    0.00000       Uiso       1.00
      C553          C  0.0090653  0.8702750  0.2320502    0.00000       Uiso       1.00
      C554          C  0.0085434  0.8698666  0.2529556    0.00000       Uiso       1.00
      C555          C  0.0274247  0.8654325  0.2756622    0.00000       Uiso       1.00
      C556          C  0.0471566  0.8622968  0.2762757    0.00000       Uiso       1.00
      C557          C  0.0492505  0.8651581  0.2549562    0.00000       Uiso       1.00
       O17          O  0.0111954  0.8689132  0.1898098    0.00000       Uiso       1.00
      H337          H  0.9938397  0.8727364  0.2149981    0.00000       Uiso       1.00
      H338          H  0.9931091  0.8728643  0.2510513    0.00000       Uiso       1.00
      H339          H  0.0602973  0.8561661  0.2936672    0.00000       Uiso       1.00
      C558          C  0.1992828  0.8671787  0.3616911    0.00000       Uiso       1.00
      C559          C  0.1788698  0.8677537  0.3402463    0.00000       Uiso       1.00
      C560          C  0.1797768  0.8703519  0.3185314    0.00000       Uiso       1.00
      C561          C  0.1588725  0.8699399  0.2975120    0.00000       Uiso       1.00
      C562          C  0.1361654  0.8655183  0.2981142    0.00000       Uiso       1.00
      C563          C  0.1355536  0.8623999  0.3203640    0.00000       Uiso       1.00
      C564          C  0.1568739  0.8652555  0.3409192    0.00000       Uiso       1.00
       O18          O  0.2220020  0.8689544  0.3642620    0.00000       Uiso       1.00
      H340          H  0.1968303  0.8728037  0.3179058    0.00000       Uiso       1.00
      H341          H  0.1607786  0.8729219  0.2809912    0.00000       Uiso       1.00
      H342          H  0.1181609  0.8562814  0.3222397    0.00000       Uiso       1.00
       B16          B  0.2352160  0.8666419  0.3901187    0.00000       Uiso       1.00
       B17          B  0.0215366  0.8666224  0.1765906    0.00000       Uiso       1.00
       B18          B  0.0216816  0.8666452  0.3902528    0.00000       Uiso       1.00
       B19          B  0.9553572  0.8124344  0.7773634    0.00000       Uiso       1.00
       N10          N  0.9553483  0.8010619  0.8010623    0.00000       Uiso       1.00
       N11          N  0.9553483  0.7650275  0.8010625    0.00000       Uiso       1.00
       B20          B  0.9553572  0.7773629  0.8124349    0.00000       Uiso       1.00
       B21          B  0.9553573  0.7773629  0.7773637    0.00000       Uiso       1.00
       N12          N  0.9553483  0.8010619  0.7650282    0.00000       Uiso       1.00
      C565          C  0.0488644  0.3831264  0.8640485    0.00000       Uiso       1.00
      C566          C  0.0696971  0.3842288  0.8627932    0.00000       Uiso       1.00
      C567          C  0.0896922  0.4059967  0.8603534    0.00000       Uiso       1.00
      C568          C  0.1108796  0.4064322  0.8603644    0.00000       Uiso       1.00
      C569          C  0.1131020  0.3847514  0.8642063    0.00000       Uiso       1.00
      C570          C  0.0928584  0.3629355  0.8669988    0.00000       Uiso       1.00
      C571          C  0.0705139  0.3626015  0.8645970    0.00000       Uiso       1.00
       O19          O  0.0455215  0.4023151  0.8635223    0.00000       Uiso       1.00
      H343          H  0.0888012  0.4227093  0.8584139    0.00000       Uiso       1.00
      H344          H  0.1254617  0.4238631  0.8576053    0.00000       Uiso       1.00
      H345          H  0.0949593  0.3457747  0.8726260    0.00000       Uiso       1.00
      C572          C  0.0286713  0.2135264  0.8639839    0.00000       Uiso       1.00
      C573          C  0.0275662  0.2345185  0.8627139    0.00000       Uiso       1.00
      C574          C  0.0058031  0.2351861  0.8602859    0.00000       Uiso       1.00
      C575          C  0.0053741  0.2559270  0.8603041    0.00000       Uiso       1.00
      C576          C  0.0270571  0.2759857  0.8641475    0.00000       Uiso       1.00
      C577          C  0.0488651  0.2747672  0.8669161    0.00000       Uiso       1.00
      C578          C  0.0491908  0.2551602  0.8645041    0.00000       Uiso       1.00
       O20          O  0.0094886  0.1915115  0.8634907    0.00000       Uiso       1.00
      H346          H  0.9890918  0.2195202  0.8583626    0.00000       Uiso       1.00
      H347          H  0.9879463  0.2558333  0.8575569    0.00000       Uiso       1.00
      H348          H  0.0660305  0.2883940  0.8725414    0.00000       Uiso       1.00
      C579          C  0.1982885  0.3629675  0.8640070    0.00000       Uiso       1.00
      C580          C  0.1772927  0.3421504  0.8627180    0.00000       Uiso       1.00
      C581          C  0.1766214  0.3221667  0.8602561    0.00000       Uiso       1.00
      C582          C  0.1558723  0.3009851  0.8602435    0.00000       Uiso       1.00
      C583          C  0.1358077  0.2987598  0.8640832    0.00000       Uiso       1.00
      C584          C  0.1370286  0.3190007  0.8668847    0.00000       Uiso       1.00
      C585          C  0.1566509  0.3413368  0.8645144    0.00000       Uiso       1.00
       O21          O  0.2202924  0.3663033  0.8634851    0.00000       Uiso       1.00
      H349          H  0.1922963  0.3230619  0.8583300    0.00000       Uiso       1.00
      H350          H  0.1559624  0.2864065  0.8574786    0.00000       Uiso       1.00
      H351          H  0.1233885  0.3169017  0.8725031    0.00000       Uiso       1.00
      C586          C  0.1992858  0.3822263  0.8671815    0.00000       Uiso       1.00
      C587          C  0.1788768  0.3826866  0.8677630    0.00000       Uiso       1.00
      C588          C  0.1798037  0.4026862  0.8704210    0.00000       Uiso       1.00
      C589          C  0.1589051  0.4032072  0.8700287    0.00000       Uiso       1.00
      C590          C  0.1361879  0.3843504  0.8655534    0.00000       Uiso       1.00
      C591          C  0.1355532  0.3646376  0.8623685    0.00000       Uiso       1.00
      C592          C  0.1568653  0.3625380  0.8652175    0.00000       Uiso       1.00
       O22          O  0.2220185  0.4005808  0.8689914    0.00000       Uiso       1.00
      H352          H  0.1968623  0.4178993  0.8728998    0.00000       Uiso       1.00
      H353          H  0.1608174  0.4186224  0.8730632    0.00000       Uiso       1.00
      H354          H  0.1181517  0.3515165  0.8562197    0.00000       Uiso       1.00
      C593          C  0.0500994  0.2125439  0.8671166    0.00000       Uiso       1.00
      C594          C  0.0715429  0.2329615  0.8676756    0.00000       Uiso       1.00
      C595          C  0.0932627  0.2320553  0.8702809    0.00000       Uiso       1.00
      C596          C  0.1142815  0.2529607  0.8698726    0.00000       Uiso       1.00
      C597          C  0.1136727  0.2756673  0.8654385    0.00000       Uiso       1.00
      C598          C  0.0914185  0.2762806  0.8623025    0.00000       Uiso       1.00
      C599          C  0.0708661  0.2549609  0.8651637    0.00000       Uiso       1.00
       O23          O  0.0475302  0.1898147  0.8689189    0.00000       Uiso       1.00
      H355          H  0.0938978  0.2150033  0.8727424    0.00000       Uiso       1.00
      H356          H  0.1308096  0.2510567  0.8728705    0.00000       Uiso       1.00
      H357          H  0.0895384  0.2936720  0.8561718    0.00000       Uiso       1.00
      C600          C  0.0295884  0.3616949  0.8671834    0.00000       Uiso       1.00
      C601          C  0.0291317  0.3402502  0.8677585    0.00000       Uiso       1.00
      C602          C  0.0091077  0.3185351  0.8703565    0.00000       Uiso       1.00
      C603          C  0.0085808  0.2975159  0.8699447    0.00000       Uiso       1.00
      C604          C  0.0274688  0.2981183  0.8655233    0.00000       Uiso       1.00
      C605          C  0.0472122  0.3203682  0.8624051    0.00000       Uiso       1.00
      C606          C  0.0493024  0.3409233  0.8652604    0.00000       Uiso       1.00
       O24          O  0.0112154  0.3642656  0.8689588    0.00000       Uiso       1.00
      H358          H  0.9938805  0.3179094  0.8728082    0.00000       Uiso       1.00
      H359          H  0.9931360  0.2809950  0.8729265    0.00000       Uiso       1.00
      H360          H  0.0603621  0.3222440  0.8562866    0.00000       Uiso       1.00
       B22          B  0.0215457  0.3901222  0.8666465    0.00000       Uiso       1.00
       B23          B  0.0216789  0.1765953  0.8666279    0.00000       Uiso       1.00
       B24          B  0.2352197  0.3902586  0.8666520    0.00000       Uiso       1.00
