data_54
_audit_creation_date              0000-00-00
_audit_creation_method            'LanYouShi'
_symmetry_space_group_name_H-M    'P1'
_cell_length_a                    68.1961975
_cell_length_b                    68.1961975
_cell_length_c                    68.1961975
_cell_angle_alpha                 60.0000000
_cell_angle_beta                  120.0002975
_cell_angle_gamma                 120.0002975
loop_
_atom_site_label
_atom_site_type_symbol
_atom_site_fract_x
_atom_site_fract_y
_atom_site_fract_z
_atom_site_U_iso_or_equiv
_atom_site_adp_type
_atom_site_occupancy
        C1          C  0.2669874  0.4047256  0.4047257    0.00000       Uiso       1.00
        C2          C  0.2794588  0.3924134  0.4277454    0.00000       Uiso       1.00
        C3          C  0.3042901  0.4029071  0.4383121    0.00000       Uiso       1.00
        C4          C  0.2794588  0.4277453  0.3924135    0.00000       Uiso       1.00
        C5          C  0.3042889  0.4382890  0.4028249    0.00000       Uiso       1.00
        C6          C  0.3171521  0.4260098  0.4259559    0.00000       Uiso       1.00
        H1          H  0.5438038  0.4643307  0.6866291    0.00000       Uiso       1.00
        H2          H  0.5440080  0.6864707  0.4647878    0.00000       Uiso       1.00
        H3          H  0.2695571  0.4380680  0.3736478    0.00000       Uiso       1.00
        H4          H  0.2695571  0.3736476  0.4380681    0.00000       Uiso       1.00
        C7          C  0.5952717  0.4575358  0.7330103    0.00000       Uiso       1.00
        C8          C  0.5722519  0.4592996  0.7205389    0.00000       Uiso       1.00
        C9          C  0.5617082  0.4631743  0.6957089    0.00000       Uiso       1.00
       C10          C  0.6075840  0.4592998  0.7205390    0.00000       Uiso       1.00
       C11          C  0.5970902  0.4630702  0.6957080    0.00000       Uiso       1.00
       C12          C  0.5739875  0.4651855  0.6828461    0.00000       Uiso       1.00
        H5          H  0.3135263  0.3927480  0.4559883    0.00000       Uiso       1.00
        H6          H  0.5356671  0.3928450  0.4561946    0.00000       Uiso       1.00
        H7          H  0.6263498  0.4578411  0.7304409    0.00000       Uiso       1.00
        H8          H  0.5619291  0.4578408  0.7304405    0.00000       Uiso       1.00
       C13          C  0.5952716  0.7330098  0.4575362    0.00000       Uiso       1.00
       C14          C  0.6075839  0.7205385  0.4593002    0.00000       Uiso       1.00
       C15          C  0.5971729  0.6957085  0.4631757    0.00000       Uiso       1.00
       C16          C  0.5722519  0.7205384  0.4593000    0.00000       Uiso       1.00
       C17          C  0.5616848  0.6957073  0.4630699    0.00000       Uiso       1.00
       C18          C  0.5740416  0.6828455  0.4651862    0.00000       Uiso       1.00
        H9          H  0.5352113  0.4559904  0.3927509    0.00000       Uiso       1.00
       H10          H  0.3133687  0.4561934  0.3928442    0.00000       Uiso       1.00
       H11          H  0.5619290  0.7304400  0.4578412    0.00000       Uiso       1.00
       H12          H  0.6263497  0.7304403  0.4578415    0.00000       Uiso       1.00
       C19          C  0.5424629  0.4047270  0.4047271    0.00000       Uiso       1.00
       C20          C  0.5406989  0.4277466  0.3924148    0.00000       Uiso       1.00
       C21          C  0.5369291  0.4383137  0.4029092    0.00000       Uiso       1.00
       C22          C  0.5406989  0.3924147  0.4277468    0.00000       Uiso       1.00
       C23          C  0.5368239  0.4028259  0.4382905    0.00000       Uiso       1.00
       C24          C  0.5348133  0.4259570  0.4260117    0.00000       Uiso       1.00
       H13          H  0.6071538  0.6866281  0.4643331    0.00000       Uiso       1.00
       H14          H  0.6072491  0.4647892  0.6864718    0.00000       Uiso       1.00
       C25          C  0.4999992  0.5000007  0.4999996    0.00000       Uiso       1.00
       H15          H  0.5421577  0.3736491  0.4380695    0.00000       Uiso       1.00
       H16          H  0.5421577  0.4380694  0.3736492    0.00000       Uiso       1.00
       C26          C  0.3437697  0.4371496  0.4369821    0.00000       Uiso       1.00
       C27          C  0.3543363  0.4344006  0.4616051    0.00000       Uiso       1.00
       C28          C  0.3792342  0.4447651  0.4718850    0.00000       Uiso       1.00
       C29          C  0.3589206  0.4506161  0.4229758    0.00000       Uiso       1.00
       C30          C  0.3838132  0.4609604  0.4332507    0.00000       Uiso       1.00
       C31          C  0.3944074  0.4582213  0.4578857    0.00000       Uiso       1.00
       H17          H  0.5293024  0.5022187  0.6051253    0.00000       Uiso       1.00
       H18          H  0.5092054  0.6134281  0.4532156    0.00000       Uiso       1.00
       H19          H  0.3515716  0.4527602  0.4040866    0.00000       Uiso       1.00
       H20          H  0.3432545  0.4245450  0.4728900    0.00000       Uiso       1.00
       C32          C  0.5628477  0.4696367  0.6562286    0.00000       Uiso       1.00
       C33          C  0.5493837  0.4853297  0.6410772    0.00000       Uiso       1.00
       C34          C  0.5390401  0.4896038  0.6161847    0.00000       Uiso       1.00
       C35          C  0.5655952  0.4583275  0.6456629    0.00000       Uiso       1.00
       C36          C  0.5552310  0.4625818  0.6207648    0.00000       Uiso       1.00
       C37          C  0.5417777  0.4783002  0.6055914    0.00000       Uiso       1.00
       H21          H  0.3865742  0.4425394  0.4907972    0.00000       Uiso       1.00
       H22          H  0.4977809  0.4219620  0.4706971    0.00000       Uiso       1.00
       H23          H  0.5754496  0.4458154  0.6567452    0.00000       Uiso       1.00
       H24          H  0.5472422  0.4947278  0.6484261    0.00000       Uiso       1.00
       C38          C  0.5630156  0.6562282  0.4696376    0.00000       Uiso       1.00
       C39          C  0.5770199  0.6410762  0.4853369    0.00000       Uiso       1.00
       C40          C  0.5667443  0.6161838  0.4896093    0.00000       Uiso       1.00
       C41          C  0.5383950  0.6456637  0.4583203    0.00000       Uiso       1.00
       C42          C  0.5281151  0.6207662  0.4625717    0.00000       Uiso       1.00
       C43          C  0.5421125  0.6055919  0.4782968    0.00000       Uiso       1.00
       H25          H  0.5467815  0.4907938  0.4425599    0.00000       Uiso       1.00
       H26          H  0.3948723  0.4707030  0.4219566    0.00000       Uiso       1.00
       H27          H  0.5271127  0.6567472  0.4458024    0.00000       Uiso       1.00
       H28          H  0.5959070  0.6484244  0.4947395    0.00000       Uiso       1.00
       C44          C  0.5303622  0.4369826  0.4371522    0.00000       Uiso       1.00
       C45          C  0.5416774  0.4616037  0.4344116    0.00000       Uiso       1.00
       C46          C  0.5374267  0.4718834  0.4447784    0.00000       Uiso       1.00
       C47          C  0.5146657  0.4229774  0.4506122    0.00000       Uiso       1.00
       C48          C  0.5103943  0.4332528  0.4609578    0.00000       Uiso       1.00
       C49          C  0.5217043  0.4578851  0.4582282    0.00000       Uiso       1.00
       H29          H  0.5780340  0.6051211  0.5022262    0.00000       Uiso       1.00
       H30          H  0.5574549  0.4532356  0.6134232    0.00000       Uiso       1.00
       H31          H  0.5052649  0.4040898  0.4527510    0.00000       Uiso       1.00
       H32          H  0.5541935  0.4728871  0.4245616    0.00000       Uiso       1.00
       C50          C  0.4210939  0.4691831  0.4689125    0.00000       Uiso       1.00
       C51          C  0.4338410  0.4570188  0.4921236    0.00000       Uiso       1.00
       C52          C  0.4588237  0.4670168  0.5022410    0.00000       Uiso       1.00
       C53          C  0.4342260  0.4916383  0.4561267    0.00000       Uiso       1.00
       C54          C  0.4592016  0.5016172  0.4662411    0.00000       Uiso       1.00
       C55          C  0.4720164  0.4899585  0.4898772    0.00000       Uiso       1.00
       H33          H  0.4815053  0.4947617  0.5313815    0.00000       Uiso       1.00
       H34          H  0.4803211  0.5320804  0.4917865    0.00000       Uiso       1.00
       H35          H  0.4251718  0.5015706  0.4381818    0.00000       Uiso       1.00
       H36          H  0.4245800  0.4393150  0.5022231    0.00000       Uiso       1.00
       C56          C  0.5308163  0.4829975  0.5789051    0.00000       Uiso       1.00
       C57          C  0.5083618  0.4864610  0.5657734    0.00000       Uiso       1.00
       C58          C  0.4983827  0.4913453  0.5407970    0.00000       Uiso       1.00
       C59          C  0.5429804  0.4846976  0.5661582    0.00000       Uiso       1.00
       C60          C  0.5329823  0.4895668  0.5411749    0.00000       Uiso       1.00
       C61          C  0.5100414  0.4921832  0.5279822    0.00000       Uiso       1.00
       H37          H  0.4679212  0.4564512  0.5196767    0.00000       Uiso       1.00
       H38          H  0.5052289  0.4553562  0.5184933    0.00000       Uiso       1.00
       H39          H  0.5606854  0.4830431  0.5754185    0.00000       Uiso       1.00
       H40          H  0.4984330  0.4854203  0.5748308    0.00000       Uiso       1.00
       C62          C  0.5310869  0.5789060  0.4829949    0.00000       Uiso       1.00
       C63          C  0.5438738  0.5657740  0.4864599    0.00000       Uiso       1.00
       C64          C  0.5337597  0.5407983  0.4913439    0.00000       Uiso       1.00
       C65          C  0.5078765  0.5661596  0.4846950    0.00000       Uiso       1.00
       C66          C  0.4977585  0.5411771  0.4895629    0.00000       Uiso       1.00
       C67          C  0.5101228  0.5279843  0.4921796    0.00000       Uiso       1.00
       H41          H  0.5082143  0.5196778  0.4564589    0.00000       Uiso       1.00
       H42          H  0.4686147  0.5184978  0.4553633    0.00000       Uiso       1.00
       H43          H  0.4977779  0.5754232  0.4830351    0.00000       Uiso       1.00
       H44          H  0.5618185  0.5748282  0.4854179    0.00000       Uiso       1.00
       C68          C  0.5170054  0.4689103  0.4691905    0.00000       Uiso       1.00
       C69          C  0.5153083  0.4921225  0.4570268    0.00000       Uiso       1.00
       C70          C  0.5104380  0.5022403  0.4670219    0.00000       Uiso       1.00
       C71          C  0.5135347  0.4561219  0.4916424    0.00000       Uiso       1.00
       C72          C  0.5086486  0.4662368  0.5016176    0.00000       Uiso       1.00
       C73          C  0.5078161  0.4898750  0.4899599    0.00000       Uiso       1.00
       H45          H  0.5446398  0.5313864  0.4947568    0.00000       Uiso       1.00
       H46          H  0.5435469  0.4917972  0.5320747    0.00000       Uiso       1.00
       H47          H  0.5145724  0.4381752  0.5015754    0.00000       Uiso       1.00
       H48          H  0.5169735  0.5022230  0.4393263    0.00000       Uiso       1.00
       C74          C  0.5424630  0.3101886  0.4047271    0.00000       Uiso       1.00
       C75          C  0.5406990  0.2977172  0.4277467    0.00000       Uiso       1.00
       C76          C  0.5369281  0.2728861  0.4383133    0.00000       Uiso       1.00
       C77          C  0.5406991  0.2977173  0.3924148    0.00000       Uiso       1.00
       C78          C  0.5368240  0.2728873  0.4028262    0.00000       Uiso       1.00
       C79          C  0.5348125  0.2600242  0.4259570    0.00000       Uiso       1.00
       H49          H  0.6071539  0.0333736  0.6866294    0.00000       Uiso       1.00
       H50          H  0.6072486  0.0331696  0.4647881    0.00000       Uiso       1.00
       H51          H  0.5421578  0.3076189  0.3736492    0.00000       Uiso       1.00
       H52          H  0.5421578  0.3076189  0.4380695    0.00000       Uiso       1.00
       C80          C  0.5952712  0.9819056  0.7330103    0.00000       Uiso       1.00
       C81          C  0.6075844  0.0049256  0.7205391    0.00000       Uiso       1.00
       C82          C  0.5971729  0.0154693  0.6957090    0.00000       Uiso       1.00
       C83          C  0.5722516  0.9695933  0.7205389    0.00000       Uiso       1.00
       C84          C  0.5616847  0.9800870  0.6957079    0.00000       Uiso       1.00
       C85          C  0.5740418  0.0031900  0.6828461    0.00000       Uiso       1.00
       H53          H  0.5352088  0.2636498  0.4559894    0.00000       Uiso       1.00
       H54          H  0.3133693  0.0415091  0.4561935    0.00000       Uiso       1.00
       H55          H  0.5619287  0.9508276  0.7304406    0.00000       Uiso       1.00
       H56          H  0.6263501  0.0152484  0.7304409    0.00000       Uiso       1.00
       C86          C  0.5952713  0.9819059  0.4575362    0.00000       Uiso       1.00
       C87          C  0.5722517  0.9695936  0.4593000    0.00000       Uiso       1.00
       C88          C  0.5617082  0.9800045  0.4631756    0.00000       Uiso       1.00
       C89          C  0.6075845  0.0049259  0.4593002    0.00000       Uiso       1.00
       C90          C  0.5970904  0.0154928  0.4630701    0.00000       Uiso       1.00
       C91          C  0.5739880  0.0031359  0.4651863    0.00000       Uiso       1.00
       H57          H  0.3135269  0.0419650  0.3927498    0.00000       Uiso       1.00
       H58          H  0.5356679  0.2638075  0.3928453    0.00000       Uiso       1.00
       H59          H  0.6263503  0.0152487  0.4578415    0.00000       Uiso       1.00
       H60          H  0.5619288  0.9508278  0.4578412    0.00000       Uiso       1.00
       C92          C  0.2669878  0.0347132  0.4047258    0.00000       Uiso       1.00
       C93          C  0.2794592  0.0364772  0.3924136    0.00000       Uiso       1.00
       C94          C  0.3042904  0.0402471  0.4029080    0.00000       Uiso       1.00
       C95          C  0.2794592  0.0364772  0.4277455    0.00000       Uiso       1.00
       C96          C  0.3042892  0.0403523  0.4382893    0.00000       Uiso       1.00
       C97          C  0.3171522  0.0423630  0.4260106    0.00000       Uiso       1.00
       H61          H  0.5438041  0.9700236  0.4643327    0.00000       Uiso       1.00
       H62          H  0.5440084  0.9699280  0.6864715    0.00000       Uiso       1.00
       C98          C  0.4999989  0.0771776  0.4999996    0.00000       Uiso       1.00
       H63          H  0.2695574  0.0350184  0.4380682    0.00000       Uiso       1.00
       H64          H  0.2695575  0.0350184  0.3736478    0.00000       Uiso       1.00
       C99          C  0.5303606  0.2334065  0.4369830    0.00000       Uiso       1.00
      C100          C  0.5416681  0.2228401  0.4616061    0.00000       Uiso       1.00
      C101          C  0.5374144  0.1979423  0.4718858    0.00000       Uiso       1.00
      C102          C  0.5146699  0.2182557  0.4229766    0.00000       Uiso       1.00
      C103          C  0.5103965  0.1933633  0.4332514    0.00000       Uiso       1.00
      C104          C  0.5216980  0.1827691  0.4578863    0.00000       Uiso       1.00
       H65          H  0.5780396  0.0478749  0.6051256    0.00000       Uiso       1.00
       H66          H  0.5574363  0.0679718  0.4532158    0.00000       Uiso       1.00
       H67          H  0.5052738  0.2256047  0.4040874    0.00000       Uiso       1.00
       H68          H  0.5541793  0.2339219  0.4728911    0.00000       Uiso       1.00
      C105          C  0.5630154  0.0143297  0.6562286    0.00000       Uiso       1.00
      C106          C  0.5770209  0.0277936  0.6410773    0.00000       Uiso       1.00
      C107          C  0.5667462  0.0381371  0.6161848    0.00000       Uiso       1.00
      C108          C  0.5383928  0.0115820  0.6456628    0.00000       Uiso       1.00
      C109          C  0.5281131  0.0219461  0.6207647    0.00000       Uiso       1.00
      C110          C  0.5421117  0.0353995  0.6055914    0.00000       Uiso       1.00
       H69          H  0.5467609  0.1906023  0.4907980    0.00000       Uiso       1.00
       H70          H  0.3948755  0.0793955  0.4706966    0.00000       Uiso       1.00
       H71          H  0.5271085  0.0017276  0.6567450    0.00000       Uiso       1.00
       H72          H  0.5959095  0.0299351  0.6484263    0.00000       Uiso       1.00
      C111          C  0.5628480  0.0141618  0.4696376    0.00000       Uiso       1.00
      C112          C  0.5493910  0.0001576  0.4853368    0.00000       Uiso       1.00
      C113          C  0.5390464  0.0104331  0.4896092    0.00000       Uiso       1.00
      C114          C  0.5655869  0.0387823  0.4583205    0.00000       Uiso       1.00
      C115          C  0.5552207  0.0490621  0.4625719    0.00000       Uiso       1.00
      C116          C  0.5417741  0.0350648  0.4782969    0.00000       Uiso       1.00
       H73          H  0.3865693  0.0303952  0.4425591    0.00000       Uiso       1.00
       H74          H  0.4977857  0.1823041  0.4219572    0.00000       Uiso       1.00
       H75          H  0.5754349  0.0500646  0.4458026    0.00000       Uiso       1.00
       H76          H  0.5472536  0.9812703  0.4947393    0.00000       Uiso       1.00
      C117          C  0.3437696  0.0468142  0.4371513    0.00000       Uiso       1.00
      C118          C  0.3543349  0.0354991  0.4344107    0.00000       Uiso       1.00
      C119          C  0.3792323  0.0397499  0.4447777    0.00000       Uiso       1.00
      C120          C  0.3589211  0.0625107  0.4506115    0.00000       Uiso       1.00
      C121          C  0.3838136  0.0667822  0.4609572    0.00000       Uiso       1.00
      C122          C  0.3944063  0.0554723  0.4582276    0.00000       Uiso       1.00
       H77          H  0.5293102  0.9991432  0.5022260    0.00000       Uiso       1.00
       H78          H  0.5092013  0.0197222  0.6134230    0.00000       Uiso       1.00
       H79          H  0.3515730  0.0719114  0.4527502    0.00000       Uiso       1.00
       H80          H  0.3432520  0.0229830  0.4245605    0.00000       Uiso       1.00
      C123          C  0.5170000  0.1560827  0.4689130    0.00000       Uiso       1.00
      C124          C  0.5152996  0.1433356  0.4921241    0.00000       Uiso       1.00
      C125          C  0.5104321  0.1183529  0.5022413    0.00000       Uiso       1.00
      C126          C  0.5135371  0.1429506  0.4561271    0.00000       Uiso       1.00
      C127          C  0.5086548  0.1179751  0.4662414    0.00000       Uiso       1.00
      C128          C  0.5078173  0.1051604  0.4898774    0.00000       Uiso       1.00
       H81          H  0.5446360  0.0956716  0.5313818    0.00000       Uiso       1.00
       H82          H  0.5435438  0.0968559  0.4917868    0.00000       Uiso       1.00
       H83          H  0.5145788  0.1520048  0.4381822    0.00000       Uiso       1.00
       H84          H  0.5169563  0.1525965  0.5022237    0.00000       Uiso       1.00
      C129          C  0.5310841  0.0463608  0.5789052    0.00000       Uiso       1.00
      C130          C  0.5438706  0.0688153  0.5657737    0.00000       Uiso       1.00
      C131          C  0.5337575  0.0787943  0.5407972    0.00000       Uiso       1.00
      C132          C  0.5078730  0.0341967  0.5661580    0.00000       Uiso       1.00
      C133          C  0.4977571  0.0441947  0.5411748    0.00000       Uiso       1.00
      C134          C  0.5101218  0.0671355  0.5279822    0.00000       Uiso       1.00
       H85          H  0.5082047  0.1092555  0.5196769    0.00000       Uiso       1.00
       H86          H  0.4686182  0.0719478  0.5184931    0.00000       Uiso       1.00
       H87          H  0.4977737  0.0164917  0.5754182    0.00000       Uiso       1.00
       H88          H  0.5618162  0.0787441  0.5748312    0.00000       Uiso       1.00
      C135          C  0.5308117  0.0460902  0.4829949    0.00000       Uiso       1.00
      C136          C  0.5083577  0.0333033  0.4864597    0.00000       Uiso       1.00
      C137          C  0.4983802  0.0434173  0.4913438    0.00000       Uiso       1.00
      C138          C  0.5429763  0.0693007  0.4846953    0.00000       Uiso       1.00
      C139          C  0.5329794  0.0794185  0.4895631    0.00000       Uiso       1.00
      C140          C  0.5100389  0.0670542  0.4921796    0.00000       Uiso       1.00
       H89          H  0.4679200  0.0689625  0.4564587    0.00000       Uiso       1.00
       H90          H  0.5052443  0.1085620  0.4553635    0.00000       Uiso       1.00
       H91          H  0.5606787  0.0793993  0.4830355    0.00000       Uiso       1.00
       H92          H  0.4984251  0.0153586  0.4854176    0.00000       Uiso       1.00
      C141          C  0.4210928  0.0601712  0.4691901    0.00000       Uiso       1.00
      C142          C  0.4338384  0.0618684  0.4570265    0.00000       Uiso       1.00
      C143          C  0.4588217  0.0667387  0.4670216    0.00000       Uiso       1.00
      C144          C  0.4342270  0.0636420  0.4916420    0.00000       Uiso       1.00
      C145          C  0.4592034  0.0685282  0.5016174    0.00000       Uiso       1.00
      C146          C  0.4720165  0.0693607  0.4899597    0.00000       Uiso       1.00
       H93          H  0.4815010  0.0325372  0.4947566    0.00000       Uiso       1.00
       H94          H  0.4803226  0.0336301  0.5320744    0.00000       Uiso       1.00
       H95          H  0.4251756  0.0626042  0.5015750    0.00000       Uiso       1.00
       H96          H  0.4245733  0.0602032  0.4393259    0.00000       Uiso       1.00
      C147          C  0.1724539  0.0347178  0.4047303    0.00000       Uiso       1.00
      C148          C  0.1847662  0.0364818  0.4277500    0.00000       Uiso       1.00
      C149          C  0.1742726  0.0402527  0.4383165    0.00000       Uiso       1.00
      C150          C  0.1494341  0.0364817  0.3924179    0.00000       Uiso       1.00
      C151          C  0.1388904  0.0403566  0.4028291    0.00000       Uiso       1.00
      C152          C  0.1511698  0.0423682  0.4259601    0.00000       Uiso       1.00
       H97          H  0.1128487  0.9700266  0.6866319    0.00000       Uiso       1.00
       H98          H  0.8907080  0.9699311  0.4647895    0.00000       Uiso       1.00
       H99          H  0.1391114  0.0350229  0.3736521    0.00000       Uiso       1.00
      H100          H  0.2035320  0.0350232  0.4380728    0.00000       Uiso       1.00
      C153          C  0.1196439  0.9819084  0.7330129    0.00000       Uiso       1.00
      C154          C  0.1178799  0.9695960  0.7205417    0.00000       Uiso       1.00
      C155          C  0.1140051  0.9800075  0.6957117    0.00000       Uiso       1.00
      C156          C  0.1178807  0.0049282  0.7205417    0.00000       Uiso       1.00
      C157          C  0.1141102  0.0154950  0.6957106    0.00000       Uiso       1.00
      C158          C  0.1119948  0.0031387  0.6828488    0.00000       Uiso       1.00
      H101          H  0.1844317  0.0419720  0.4559927    0.00000       Uiso       1.00
      H102          H  0.1843356  0.2638105  0.4561979    0.00000       Uiso       1.00
      H103          H  0.1193394  0.0152509  0.7304433    0.00000       Uiso       1.00
      H104          H  0.1193387  0.9508305  0.7304433    0.00000       Uiso       1.00
      C159          C  0.8441689  0.9819072  0.4575374    0.00000       Uiso       1.00
      C160          C  0.8566411  0.0049271  0.4593014    0.00000       Uiso       1.00
      C161          C  0.8814713  0.0154707  0.4631772    0.00000       Uiso       1.00
      C162          C  0.8566403  0.9695951  0.4593014    0.00000       Uiso       1.00
      C163          C  0.8814715  0.9800892  0.4630716    0.00000       Uiso       1.00
      C164          C  0.8943341  0.0031918  0.4651878    0.00000       Uiso       1.00
      H105          H  0.1211900  0.2636526  0.3927539    0.00000       Uiso       1.00
      H106          H  0.1209860  0.0415127  0.3928483    0.00000       Uiso       1.00
      H107          H  0.8467386  0.9508293  0.4578426    0.00000       Uiso       1.00
      H108          H  0.8467394  0.0152498  0.4578426    0.00000       Uiso       1.00
      C165          C  0.1724536  0.3101917  0.4047303    0.00000       Uiso       1.00
      C166          C  0.1494339  0.2977203  0.3924179    0.00000       Uiso       1.00
      C167          C  0.1388668  0.2728891  0.4029122    0.00000       Uiso       1.00
      C168          C  0.1847660  0.2977205  0.4277500    0.00000       Uiso       1.00
      C169          C  0.1743547  0.2728905  0.4382937    0.00000       Uiso       1.00
      C170          C  0.1512235  0.2600274  0.4260148    0.00000       Uiso       1.00
      H109          H  0.8905517  0.0333747  0.4643345    0.00000       Uiso       1.00
      H110          H  0.1123912  0.0331712  0.6864743    0.00000       Uiso       1.00
      C171          C  0.0771792  0.0771813  0.5000025    0.00000       Uiso       1.00
      H111          H  0.2035317  0.3076222  0.4380729    0.00000       Uiso       1.00
      H112          H  0.1391111  0.3076219  0.3736522    0.00000       Uiso       1.00
      C172          C  0.1400300  0.0468199  0.4369861    0.00000       Uiso       1.00
      C173          C  0.1427791  0.0355125  0.4616090    0.00000       Uiso       1.00
      C174          C  0.1324146  0.0397661  0.4718888    0.00000       Uiso       1.00
      C175          C  0.1265635  0.0625106  0.4229797    0.00000       Uiso       1.00
      C176          C  0.1162192  0.0667840  0.4332544    0.00000       Uiso       1.00
      C177          C  0.1189584  0.0554825  0.4578893    0.00000       Uiso       1.00
      H113          H  0.0749605  0.9991406  0.6051280    0.00000       Uiso       1.00
      H114          H  0.9637516  0.0197436  0.4532179    0.00000       Uiso       1.00
      H115          H  0.1244194  0.0719066  0.4040905    0.00000       Uiso       1.00
      H116          H  0.1526346  0.0230014  0.4728941    0.00000       Uiso       1.00
      C178          C  0.1075435  0.0141650  0.6562313    0.00000       Uiso       1.00
      C179          C  0.0918505  0.0001595  0.6410799    0.00000       Uiso       1.00
      C180          C  0.0875763  0.0104342  0.6161875    0.00000       Uiso       1.00
      C181          C  0.1188529  0.0387876  0.6456658    0.00000       Uiso       1.00
      C182          C  0.1145985  0.0490672  0.6207677    0.00000       Uiso       1.00
      C183          C  0.0988799  0.0350687  0.6055942    0.00000       Uiso       1.00
      H117          H  0.1346403  0.0304197  0.4908010    0.00000       Uiso       1.00
      H118          H  0.1552184  0.1823045  0.4707004    0.00000       Uiso       1.00
      H119          H  0.1313650  0.0500719  0.6567480    0.00000       Uiso       1.00
      H120          H  0.0824515  0.9812708  0.6484287    0.00000       Uiso       1.00
      C184          C  0.9209515  0.0143318  0.4696394    0.00000       Uiso       1.00
      C185          C  0.9361036  0.0277888  0.4853387    0.00000       Uiso       1.00
      C186          C  0.9609962  0.0381334  0.4896112    0.00000       Uiso       1.00
      C187          C  0.9315160  0.0115930  0.4583223    0.00000       Uiso       1.00
      C188          C  0.9564136  0.0219592  0.4625739    0.00000       Uiso       1.00
      C189          C  0.9715880  0.0354058  0.4782990    0.00000       Uiso       1.00
      H121          H  0.0863864  0.1906104  0.4425626    0.00000       Uiso       1.00
      H122          H  0.1064767  0.0793946  0.4219602    0.00000       Uiso       1.00
      H123          H  0.9204323  0.0017449  0.4458043    0.00000       Uiso       1.00
      H124          H  0.9287555  0.0299254  0.4947411    0.00000       Uiso       1.00
      C190          C  0.1401978  0.2334101  0.4371553    0.00000       Uiso       1.00
      C191          C  0.1155767  0.2228448  0.4344145    0.00000       Uiso       1.00
      C192          C  0.1052969  0.1979475  0.4447813    0.00000       Uiso       1.00
      C193          C  0.1542030  0.2182587  0.4506154    0.00000       Uiso       1.00
      C194          C  0.1439275  0.1933664  0.4609610    0.00000       Uiso       1.00
      C195          C  0.1192952  0.1827735  0.4582312    0.00000       Uiso       1.00
      H125          H  0.9720588  0.0478689  0.5022283    0.00000       Uiso       1.00
      H126          H  0.1239448  0.0679789  0.6134261    0.00000       Uiso       1.00
      H127          H  0.1730907  0.2256069  0.4527543    0.00000       Uiso       1.00
      H128          H  0.1042933  0.2339276  0.4245643    0.00000       Uiso       1.00
      C196          C  0.1079966  0.0601804  0.4689159    0.00000       Uiso       1.00
      C197          C  0.1201610  0.0618808  0.4921271    0.00000       Uiso       1.00
      C198          C  0.1101632  0.0667483  0.5022443    0.00000       Uiso       1.00
      C199          C  0.0855415  0.0636431  0.4561299    0.00000       Uiso       1.00
      C200          C  0.0755626  0.0685254  0.4662443    0.00000       Uiso       1.00
      C201          C  0.0872214  0.0693630  0.4898802    0.00000       Uiso       1.00
      H129          H  0.0824182  0.0325443  0.5313846    0.00000       Uiso       1.00
      H130          H  0.0450994  0.0336364  0.4917893    0.00000       Uiso       1.00
      H131          H  0.0756090  0.0626014  0.4381850    0.00000       Uiso       1.00
      H132          H  0.1378649  0.0602242  0.5022267    0.00000       Uiso       1.00
      C202          C  0.0941826  0.0460962  0.5789080    0.00000       Uiso       1.00
      C203          C  0.0907190  0.0333098  0.5657764    0.00000       Uiso       1.00
      C204          C  0.0858347  0.0434228  0.5408000    0.00000       Uiso       1.00
      C205          C  0.0924826  0.0693072  0.5661609    0.00000       Uiso       1.00
      C206          C  0.0876133  0.0794230  0.5411777    0.00000       Uiso       1.00
      C207          C  0.0849968  0.0670584  0.5279851    0.00000       Uiso       1.00
      H133          H  0.1207288  0.0689756  0.5196800    0.00000       Uiso       1.00
      H134          H  0.1218240  0.1085620  0.5184965    0.00000       Uiso       1.00
      H135          H  0.0941371  0.0794064  0.5754212    0.00000       Uiso       1.00
      H136          H  0.0917597  0.0153643  0.5748338    0.00000       Uiso       1.00
      C208          C  0.9982739  0.0463682  0.4829972    0.00000       Uiso       1.00
      C209          C  0.0114059  0.0688222  0.4864622    0.00000       Uiso       1.00
      C210          C  0.0363816  0.0787998  0.4913464    0.00000       Uiso       1.00
      C211          C  0.0110201  0.0342038  0.4846976    0.00000       Uiso       1.00
      C212          C  0.0360027  0.0442007  0.4895656    0.00000       Uiso       1.00
      C213          C  0.0491956  0.0671412  0.4921823    0.00000       Uiso       1.00
      H137          H  0.0575021  0.1092599  0.4564617    0.00000       Uiso       1.00
      H138          H  0.0586820  0.0719358  0.4553663    0.00000       Uiso       1.00
      H139          H  0.0017564  0.0165015  0.4830377    0.00000       Uiso       1.00
      H140          H  0.0023517  0.0787547  0.4854201    0.00000       Uiso       1.00
      C214          C  0.1082698  0.1560871  0.4691935    0.00000       Uiso       1.00
      C215          C  0.0850576  0.1433415  0.4570297    0.00000       Uiso       1.00
      C216          C  0.0749397  0.1183583  0.4670247    0.00000       Uiso       1.00
      C217          C  0.1210584  0.1429530  0.4916455    0.00000       Uiso       1.00
      C218          C  0.1109434  0.1179767  0.5016207    0.00000       Uiso       1.00
      C219          C  0.0873051  0.1051636  0.4899628    0.00000       Uiso       1.00
      H141          H  0.0457936  0.0956789  0.4947594    0.00000       Uiso       1.00
      H142          H  0.0853829  0.0968575  0.5320774    0.00000       Uiso       1.00
      H143          H  0.1390051  0.1520045  0.5015786    0.00000       Uiso       1.00
      H144          H  0.0749570  0.1526065  0.4393292    0.00000       Uiso       1.00
      C220          C  0.1724537  0.4047303  0.3101919    0.00000       Uiso       1.00
      C221          C  0.1847660  0.4277500  0.2977206    0.00000       Uiso       1.00
      C222          C  0.1742724  0.4383165  0.2728894    0.00000       Uiso       1.00
      C223          C  0.1494340  0.3924179  0.2977205    0.00000       Uiso       1.00
      C224          C  0.1388903  0.4028292  0.2728904    0.00000       Uiso       1.00
      C225          C  0.1511696  0.4259601  0.2600274    0.00000       Uiso       1.00
      H145          H  0.1128496  0.6866320  0.0333764    0.00000       Uiso       1.00
      H146          H  0.8907088  0.4647897  0.0331711    0.00000       Uiso       1.00
      H147          H  0.1391112  0.3736522  0.3076221    0.00000       Uiso       1.00
      H148          H  0.2035318  0.4380728  0.3076224    0.00000       Uiso       1.00
      C226          C  0.1196440  0.7330124  0.9819091    0.00000       Uiso       1.00
      C227          C  0.1178808  0.7205418  0.0049284    0.00000       Uiso       1.00
      C228          C  0.1140060  0.6957118  0.0154721    0.00000       Uiso       1.00
      C229          C  0.1178801  0.7205411  0.9695968    0.00000       Uiso       1.00
      C230          C  0.1141096  0.6957101  0.9800906    0.00000       Uiso       1.00
      C231          C  0.1119949  0.6828489  0.0031929    0.00000       Uiso       1.00
      H149          H  0.1844315  0.4559927  0.2636533    0.00000       Uiso       1.00
      H150          H  0.1843359  0.4561980  0.0415136    0.00000       Uiso       1.00
      H151          H  0.1193388  0.7304428  0.9508312    0.00000       Uiso       1.00
      H152          H  0.1193395  0.7304434  0.0152512    0.00000       Uiso       1.00
      C232          C  0.8441690  0.4575369  0.9819078    0.00000       Uiso       1.00
      C233          C  0.8566404  0.4593009  0.9695957    0.00000       Uiso       1.00
      C234          C  0.8814706  0.4631767  0.9800068    0.00000       Uiso       1.00
      C235          C  0.8566412  0.4593015  0.0049272    0.00000       Uiso       1.00
      C236          C  0.8814723  0.4630717  0.0154943    0.00000       Uiso       1.00
      C237          C  0.8943341  0.4651880  0.0031377    0.00000       Uiso       1.00
      H153          H  0.1211902  0.3927541  0.0419692    0.00000       Uiso       1.00
      H154          H  0.1209859  0.3928483  0.2638106    0.00000       Uiso       1.00
      H155          H  0.8467395  0.4578427  0.0152499    0.00000       Uiso       1.00
      H156          H  0.8467387  0.4578421  0.9508299    0.00000       Uiso       1.00
      C238          C  0.1724539  0.4047305  0.0347179    0.00000       Uiso       1.00
      C239          C  0.1494342  0.3924181  0.0364817    0.00000       Uiso       1.00
      C240          C  0.1388671  0.4029123  0.0402514    0.00000       Uiso       1.00
      C241          C  0.1847662  0.4277502  0.0364819    0.00000       Uiso       1.00
      C242          C  0.1743550  0.4382938  0.0403568    0.00000       Uiso       1.00
      C243          C  0.1512237  0.4260149  0.0423673    0.00000       Uiso       1.00
      H157          H  0.8905510  0.4643340  0.9700260    0.00000       Uiso       1.00
      H158          H  0.1123906  0.6864738  0.9699317    0.00000       Uiso       1.00
      C244          C  0.0771793  0.5000026  0.0771807    0.00000       Uiso       1.00
      H159          H  0.2035320  0.4380730  0.0350232    0.00000       Uiso       1.00
      H160          H  0.1391114  0.3736524  0.0350229    0.00000       Uiso       1.00
      C245          C  0.1400299  0.4369861  0.2334098    0.00000       Uiso       1.00
      C246          C  0.1427790  0.4616091  0.2228433    0.00000       Uiso       1.00
      C247          C  0.1324145  0.4718888  0.1979454    0.00000       Uiso       1.00
      C248          C  0.1265634  0.4229797  0.2182589    0.00000       Uiso       1.00
      C249          C  0.1162192  0.4332545  0.1933664    0.00000       Uiso       1.00
      C250          C  0.1189583  0.4578894  0.1827722    0.00000       Uiso       1.00
      H161          H  0.0749613  0.6051282  0.0478776    0.00000       Uiso       1.00
      H162          H  0.9637516  0.4532180  0.0679739    0.00000       Uiso       1.00
      H163          H  0.1244193  0.4040905  0.2256079    0.00000       Uiso       1.00
      H164          H  0.1526345  0.4728941  0.2339251    0.00000       Uiso       1.00
      C251          C  0.1075436  0.6562315  0.0143326    0.00000       Uiso       1.00
      C252          C  0.0918506  0.6410800  0.0277964    0.00000       Uiso       1.00
      C253          C  0.0875763  0.6161875  0.0381399    0.00000       Uiso       1.00
      C254          C  0.1188530  0.6456659  0.0115852    0.00000       Uiso       1.00
      C255          C  0.1145986  0.6207678  0.0219493    0.00000       Uiso       1.00
      C256          C  0.0988800  0.6055942  0.0354025    0.00000       Uiso       1.00
      H165          H  0.1346402  0.4908010  0.1906054    0.00000       Uiso       1.00
      H166          H  0.1552185  0.4707005  0.0793995    0.00000       Uiso       1.00
      H167          H  0.1313652  0.6567481  0.0017309    0.00000       Uiso       1.00
      H168          H  0.0824523  0.6484289  0.0299378    0.00000       Uiso       1.00
      C257          C  0.9209515  0.4696395  0.0141637    0.00000       Uiso       1.00
      C258          C  0.9361038  0.4853389  0.0001596    0.00000       Uiso       1.00
      C259          C  0.9609963  0.4896114  0.0104353    0.00000       Uiso       1.00
      C260          C  0.9315161  0.4583225  0.0387843    0.00000       Uiso       1.00
      C261          C  0.9564137  0.4625740  0.0490643    0.00000       Uiso       1.00
      C262          C  0.9715880  0.4782992  0.0350670    0.00000       Uiso       1.00
      H169          H  0.0863866  0.4425628  0.0303988    0.00000       Uiso       1.00
      H170          H  0.1064766  0.4219603  0.1823073    0.00000       Uiso       1.00
      H171          H  0.9204324  0.4458045  0.0500665    0.00000       Uiso       1.00
      H172          H  0.9287549  0.4947407  0.9812728    0.00000       Uiso       1.00
      C263          C  0.1401980  0.4371554  0.0468183    0.00000       Uiso       1.00
      C264          C  0.1155769  0.4344146  0.0355031    0.00000       Uiso       1.00
      C265          C  0.1052971  0.4447815  0.0397536    0.00000       Uiso       1.00
      C266          C  0.1542032  0.4506156  0.0625148    0.00000       Uiso       1.00
      C267          C  0.1439277  0.4609611  0.0667861    0.00000       Uiso       1.00
      C268          C  0.1192953  0.4582314  0.0554760    0.00000       Uiso       1.00
      H173          H  0.9720582  0.5022277  0.9991460    0.00000       Uiso       1.00
      H174          H  0.1239450  0.6134263  0.0197254    0.00000       Uiso       1.00
      H175          H  0.1730909  0.4527545  0.0719157    0.00000       Uiso       1.00
      H176          H  0.1042935  0.4245645  0.0229869    0.00000       Uiso       1.00
      C269          C  0.1079966  0.4689161  0.1560858    0.00000       Uiso       1.00
      C270          C  0.1201610  0.4921272  0.1433388    0.00000       Uiso       1.00
      C271          C  0.1101632  0.5022444  0.1183561    0.00000       Uiso       1.00
      C272          C  0.0855415  0.4561301  0.1429536    0.00000       Uiso       1.00
      C273          C  0.0755626  0.4662443  0.1179781    0.00000       Uiso       1.00
      C274          C  0.0872214  0.4898804  0.1051635    0.00000       Uiso       1.00
      H177          H  0.0824182  0.5313846  0.0956745    0.00000       Uiso       1.00
      H178          H  0.0450994  0.4917894  0.0968586    0.00000       Uiso       1.00
      H179          H  0.0756090  0.4381851  0.1520078    0.00000       Uiso       1.00
      H180          H  0.1378649  0.5022269  0.1525998    0.00000       Uiso       1.00
      C275          C  0.0941826  0.5789081  0.0463638    0.00000       Uiso       1.00
      C276          C  0.0907191  0.5657765  0.0688182    0.00000       Uiso       1.00
      C277          C  0.0858348  0.5408001  0.0787972    0.00000       Uiso       1.00
      C278          C  0.0924827  0.5661611  0.0341998    0.00000       Uiso       1.00
      C279          C  0.0876134  0.5411779  0.0441978    0.00000       Uiso       1.00
      C280          C  0.0849969  0.5279852  0.0671386    0.00000       Uiso       1.00
      H181          H  0.1207288  0.5196801  0.1092588    0.00000       Uiso       1.00
      H182          H  0.1218241  0.5184966  0.0719513    0.00000       Uiso       1.00
      H183          H  0.0941373  0.5754214  0.0164949    0.00000       Uiso       1.00
      H184          H  0.0917597  0.5748339  0.0787470    0.00000       Uiso       1.00
      C281          C  0.9982740  0.4829973  0.0460927    0.00000       Uiso       1.00
      C282          C  0.0114060  0.4864624  0.0333060    0.00000       Uiso       1.00
      C283          C  0.0363817  0.4913466  0.0434202    0.00000       Uiso       1.00
      C284          C  0.0110201  0.4846977  0.0693032    0.00000       Uiso       1.00
      C285          C  0.0360027  0.4895657  0.0794212    0.00000       Uiso       1.00
      C286          C  0.0491956  0.4921824  0.0670570    0.00000       Uiso       1.00
      H185          H  0.0575022  0.4564618  0.0689656    0.00000       Uiso       1.00
      H186          H  0.0586820  0.4553664  0.1085649    0.00000       Uiso       1.00
      H187          H  0.0017564  0.4830378  0.0794016    0.00000       Uiso       1.00
      H188          H  0.0023518  0.4854203  0.0153612    0.00000       Uiso       1.00
      C287          C  0.1082700  0.4691936  0.0601748    0.00000       Uiso       1.00
      C288          C  0.0850578  0.4570298  0.0618718    0.00000       Uiso       1.00
      C289          C  0.0749398  0.4670249  0.0667419    0.00000       Uiso       1.00
      C290          C  0.1210585  0.4916456  0.0636456    0.00000       Uiso       1.00
      C291          C  0.1109435  0.5016208  0.0685316    0.00000       Uiso       1.00
      C292          C  0.0873051  0.4899630  0.0693639    0.00000       Uiso       1.00
      H189          H  0.0457938  0.4947595  0.0325402    0.00000       Uiso       1.00
      H190          H  0.0853830  0.5320776  0.0336333    0.00000       Uiso       1.00
      H191          H  0.1390052  0.5015787  0.0626080    0.00000       Uiso       1.00
      H192          H  0.0749571  0.4393293  0.0602066    0.00000       Uiso       1.00
      C293          C  0.2669878  0.4047258  0.0347133    0.00000       Uiso       1.00
      C294          C  0.2794591  0.4277455  0.0364773    0.00000       Uiso       1.00
      C295          C  0.3042904  0.4383122  0.0402484    0.00000       Uiso       1.00
      C296          C  0.2794591  0.3924136  0.0364773    0.00000       Uiso       1.00
      C297          C  0.3042893  0.4028250  0.0403524    0.00000       Uiso       1.00
      C298          C  0.3171524  0.4259560  0.0423640    0.00000       Uiso       1.00
      H193          H  0.5438035  0.6866285  0.9700243    0.00000       Uiso       1.00
      H194          H  0.5440078  0.4647872  0.9699299    0.00000       Uiso       1.00
      H195          H  0.2695575  0.3736479  0.0350185    0.00000       Uiso       1.00
      H196          H  0.2695574  0.4380682  0.0350185    0.00000       Uiso       1.00
      C299          C  0.5952713  0.7330097  0.9819065    0.00000       Uiso       1.00
      C300          C  0.5722516  0.7205383  0.9695941    0.00000       Uiso       1.00
      C301          C  0.5617079  0.6957083  0.9800054    0.00000       Uiso       1.00
      C302          C  0.6075845  0.7205392  0.0049258    0.00000       Uiso       1.00
      C303          C  0.5970907  0.6957080  0.0154926    0.00000       Uiso       1.00
      C304          C  0.5739879  0.6828461  0.0031362    0.00000       Uiso       1.00
      H197          H  0.3135267  0.4559883  0.0419677    0.00000       Uiso       1.00
      H198          H  0.5356672  0.4561945  0.2638073    0.00000       Uiso       1.00
      H199          H  0.6263502  0.7304409  0.0152487    0.00000       Uiso       1.00
      H200          H  0.5619288  0.7304399  0.9508284    0.00000       Uiso       1.00
      C305          C  0.5952715  0.4575356  0.9819066    0.00000       Uiso       1.00
      C306          C  0.6075845  0.4593003  0.0049260    0.00000       Uiso       1.00
      C307          C  0.5971735  0.4631759  0.0154693    0.00000       Uiso       1.00
      C308          C  0.5722517  0.4592994  0.9695942    0.00000       Uiso       1.00
      C309          C  0.5616847  0.4630694  0.9800882    0.00000       Uiso       1.00
      C310          C  0.5740422  0.4651864  0.0031902    0.00000       Uiso       1.00
      H201          H  0.5352114  0.3927509  0.2636498    0.00000       Uiso       1.00
      H202          H  0.3133691  0.3928443  0.0415087    0.00000       Uiso       1.00
      H203          H  0.5619289  0.4578407  0.9508285    0.00000       Uiso       1.00
      H204          H  0.6263503  0.4578416  0.0152488    0.00000       Uiso       1.00
      C311          C  0.5424630  0.4047271  0.3101887    0.00000       Uiso       1.00
      C312          C  0.5406991  0.3924148  0.2977173    0.00000       Uiso       1.00
      C313          C  0.5369293  0.4029091  0.2728862    0.00000       Uiso       1.00
      C314          C  0.5406990  0.4277467  0.2977173    0.00000       Uiso       1.00
      C315          C  0.5368240  0.4382904  0.2728874    0.00000       Uiso       1.00
      C316          C  0.5348135  0.4260116  0.2600245    0.00000       Uiso       1.00
      H205          H  0.6071544  0.4643332  0.0333733    0.00000       Uiso       1.00
      H206          H  0.6072496  0.6864718  0.0331688    0.00000       Uiso       1.00
      C317          C  0.4999996  0.4999997  0.0771785    0.00000       Uiso       1.00
      H207          H  0.5421578  0.4380695  0.3076190    0.00000       Uiso       1.00
      H208          H  0.5421578  0.3736492  0.3076190    0.00000       Uiso       1.00
      C318          C  0.3437701  0.4369821  0.0468160    0.00000       Uiso       1.00
      C319          C  0.3543366  0.4616052  0.0355086    0.00000       Uiso       1.00
      C320          C  0.3792346  0.4718851  0.0397624    0.00000       Uiso       1.00
      C321          C  0.3589210  0.4229758  0.0625068    0.00000       Uiso       1.00
      C322          C  0.3838135  0.4332508  0.0667803    0.00000       Uiso       1.00
      C323          C  0.3944078  0.4578857  0.0554789    0.00000       Uiso       1.00
      H209          H  0.5293021  0.6051248  0.9991385    0.00000       Uiso       1.00
      H210          H  0.5092059  0.4532157  0.0197414    0.00000       Uiso       1.00
      H211          H  0.3515719  0.4040866  0.0719028    0.00000       Uiso       1.00
      H212          H  0.3432549  0.4728901  0.0229974    0.00000       Uiso       1.00
      C324          C  0.5628481  0.6562287  0.0141625    0.00000       Uiso       1.00
      C325          C  0.5493842  0.6410773  0.0001570    0.00000       Uiso       1.00
      C326          C  0.5390406  0.6161848  0.0104316    0.00000       Uiso       1.00
      C327          C  0.5655956  0.6456630  0.0387850    0.00000       Uiso       1.00
      C328          C  0.5552315  0.6207649  0.0490646    0.00000       Uiso       1.00
      C329          C  0.5417780  0.6055914  0.0350661    0.00000       Uiso       1.00
      H213          H  0.3865746  0.4907973  0.0304160    0.00000       Uiso       1.00
      H214          H  0.4977811  0.4706971  0.1823013    0.00000       Uiso       1.00
      H215          H  0.5754500  0.6567453  0.0500693    0.00000       Uiso       1.00
      H216          H  0.5472420  0.6484255  0.9812688    0.00000       Uiso       1.00
      C330          C  0.5630162  0.4696377  0.0143301    0.00000       Uiso       1.00
      C331          C  0.5770204  0.4853370  0.0277871    0.00000       Uiso       1.00
      C332          C  0.5667448  0.4896094  0.0381315    0.00000       Uiso       1.00
      C333          C  0.5383956  0.4583205  0.0115911    0.00000       Uiso       1.00
      C334          C  0.5281156  0.4625718  0.0219572    0.00000       Uiso       1.00
      C335          C  0.5421130  0.4782970  0.0354038    0.00000       Uiso       1.00
      H217          H  0.5467817  0.4425599  0.1906078    0.00000       Uiso       1.00
      H218          H  0.3948727  0.4219567  0.0793911    0.00000       Uiso       1.00
      H219          H  0.5271133  0.4458025  0.0017430    0.00000       Uiso       1.00
      H220          H  0.5959076  0.4947396  0.0299238    0.00000       Uiso       1.00
      C336          C  0.5303624  0.4371522  0.2334072    0.00000       Uiso       1.00
      C337          C  0.5416776  0.4344116  0.2228420    0.00000       Uiso       1.00
      C338          C  0.5374269  0.4447785  0.1979447    0.00000       Uiso       1.00
      C339          C  0.5146658  0.4506122  0.2182556    0.00000       Uiso       1.00
      C340          C  0.5103945  0.4609578  0.1933633    0.00000       Uiso       1.00
      C341          C  0.5217046  0.4582283  0.1827707    0.00000       Uiso       1.00
      H221          H  0.5780345  0.5022264  0.0478670    0.00000       Uiso       1.00
      H222          H  0.5574553  0.6134233  0.0679763    0.00000       Uiso       1.00
      H223          H  0.5052651  0.4527510  0.2256037    0.00000       Uiso       1.00
      H224          H  0.5541937  0.4245616  0.2339249    0.00000       Uiso       1.00
      C342          C  0.4210943  0.4689126  0.0601770    0.00000       Uiso       1.00
      C343          C  0.4338414  0.4921237  0.0618775    0.00000       Uiso       1.00
      C344          C  0.4588241  0.5022411  0.0667451    0.00000       Uiso       1.00
      C345          C  0.4342264  0.4561267  0.0636399    0.00000       Uiso       1.00
      C346          C  0.4592021  0.4662412  0.0685224    0.00000       Uiso       1.00
      C347          C  0.4720168  0.4898772  0.0693600    0.00000       Uiso       1.00
      H225          H  0.4815057  0.5313816  0.0325414    0.00000       Uiso       1.00
      H226          H  0.4803215  0.4917866  0.0336336    0.00000       Uiso       1.00
      H227          H  0.4251722  0.4381818  0.0625982    0.00000       Uiso       1.00
      H228          H  0.4245804  0.5022233  0.0602207    0.00000       Uiso       1.00
      C348          C  0.5308167  0.5789052  0.0460935    0.00000       Uiso       1.00
      C349          C  0.5083622  0.5657735  0.0333070    0.00000       Uiso       1.00
      C350          C  0.4983831  0.5407971  0.0434200    0.00000       Uiso       1.00
      C351          C  0.5429808  0.5661582  0.0693046    0.00000       Uiso       1.00
      C352          C  0.5329827  0.5411751  0.0794204    0.00000       Uiso       1.00
      C353          C  0.5100418  0.5279822  0.0670557    0.00000       Uiso       1.00
      H229          H  0.4679216  0.5196768  0.0689725    0.00000       Uiso       1.00
      H230          H  0.5052292  0.5184934  0.1085590    0.00000       Uiso       1.00
      H231          H  0.5606858  0.5754186  0.0794039    0.00000       Uiso       1.00
      H232          H  0.4984334  0.5748309  0.0153615    0.00000       Uiso       1.00
      C354          C  0.5310874  0.4829949  0.0463660    0.00000       Uiso       1.00
      C355          C  0.5438742  0.4864599  0.0688199    0.00000       Uiso       1.00
      C356          C  0.5337601  0.4913440  0.0787974    0.00000       Uiso       1.00
      C357          C  0.5078769  0.4846952  0.0342014    0.00000       Uiso       1.00
      C358          C  0.4977590  0.4895630  0.0441981    0.00000       Uiso       1.00
      C359          C  0.5101233  0.4921797  0.0671386    0.00000       Uiso       1.00
      H233          H  0.5082147  0.4564590  0.1092572    0.00000       Uiso       1.00
      H234          H  0.4686151  0.4553634  0.0719329    0.00000       Uiso       1.00
      H235          H  0.4977784  0.4830353  0.0164990    0.00000       Uiso       1.00
      H236          H  0.5618190  0.4854180  0.0787526    0.00000       Uiso       1.00
      C360          C  0.5170057  0.4691905  0.1560842    0.00000       Uiso       1.00
      C361          C  0.5153086  0.4570269  0.1433387    0.00000       Uiso       1.00
      C362          C  0.5104384  0.4670219  0.1183555    0.00000       Uiso       1.00
      C363          C  0.5135349  0.4916424  0.1429500    0.00000       Uiso       1.00
      C364          C  0.5086489  0.5016177  0.1179738    0.00000       Uiso       1.00
      C365          C  0.5078164  0.4899600  0.1051608    0.00000       Uiso       1.00
      H237          H  0.5446401  0.4947569  0.0956765    0.00000       Uiso       1.00
      H238          H  0.5435472  0.5320747  0.0968549    0.00000       Uiso       1.00
      H239          H  0.5145727  0.5015754  0.1520014    0.00000       Uiso       1.00
      H240          H  0.5169738  0.4393264  0.1526038    0.00000       Uiso       1.00
      C366          C  0.1724540  0.3101920  0.0347179    0.00000       Uiso       1.00
      C367          C  0.1847664  0.2977207  0.0364819    0.00000       Uiso       1.00
      C368          C  0.1742727  0.2728895  0.0402528    0.00000       Uiso       1.00
      C369          C  0.1494343  0.2977206  0.0364817    0.00000       Uiso       1.00
      C370          C  0.1388906  0.2728905  0.0403566    0.00000       Uiso       1.00
      C371          C  0.1511699  0.2600275  0.0423683    0.00000       Uiso       1.00
      H241          H  0.1128493  0.0333759  0.9700273    0.00000       Uiso       1.00
      H242          H  0.8907084  0.0331706  0.9699317    0.00000       Uiso       1.00
      H243          H  0.1391115  0.3076222  0.0350229    0.00000       Uiso       1.00
      H244          H  0.2035321  0.3076225  0.0350232    0.00000       Uiso       1.00
      C372          C  0.1196438  0.9819081  0.9819091    0.00000       Uiso       1.00
      C373          C  0.1178806  0.0049279  0.9695968    0.00000       Uiso       1.00
      C374          C  0.1140057  0.0154716  0.9800081    0.00000       Uiso       1.00
      C375          C  0.1178806  0.9695964  0.0049284    0.00000       Uiso       1.00
      C376          C  0.1141101  0.9800902  0.0154952    0.00000       Uiso       1.00
      C377          C  0.1119954  0.0031931  0.0031389    0.00000       Uiso       1.00
      H245          H  0.1844319  0.2636533  0.0419721    0.00000       Uiso       1.00
      H246          H  0.1843360  0.0415136  0.2638106    0.00000       Uiso       1.00
      H247          H  0.1193393  0.9508308  0.0152512    0.00000       Uiso       1.00
      H248          H  0.1193393  0.0152507  0.9508312    0.00000       Uiso       1.00
      C378          C  0.8441687  0.9819069  0.9819078    0.00000       Uiso       1.00
      C379          C  0.8566408  0.9695953  0.0049272    0.00000       Uiso       1.00
      C380          C  0.8814709  0.9800064  0.0154708    0.00000       Uiso       1.00
      C381          C  0.8566408  0.0049267  0.9695957    0.00000       Uiso       1.00
      C382          C  0.8814719  0.0154938  0.9800897    0.00000       Uiso       1.00
      C383          C  0.8943346  0.0031378  0.0031918    0.00000       Uiso       1.00
      H249          H  0.1211903  0.0419692  0.2636527    0.00000       Uiso       1.00
      H250          H  0.1209861  0.2638107  0.0415127    0.00000       Uiso       1.00
      H251          H  0.8467391  0.0152494  0.9508299    0.00000       Uiso       1.00
      H252          H  0.8467391  0.9508296  0.0152499    0.00000       Uiso       1.00
      C384          C  0.1724539  0.0347178  0.3101918    0.00000       Uiso       1.00
      C385          C  0.1494342  0.0364817  0.2977204    0.00000       Uiso       1.00
      C386          C  0.1388671  0.0402514  0.2728892    0.00000       Uiso       1.00
      C387          C  0.1847663  0.0364819  0.2977206    0.00000       Uiso       1.00
      C388          C  0.1743551  0.0403568  0.2728906    0.00000       Uiso       1.00
      C389          C  0.1512238  0.0423673  0.2600276    0.00000       Uiso       1.00
      H253          H  0.8905513  0.9700255  0.0333748    0.00000       Uiso       1.00
      H254          H  0.1123911  0.9699313  0.0331714    0.00000       Uiso       1.00
      C390          C  0.0771796  0.0771808  0.0771814    0.00000       Uiso       1.00
      H255          H  0.2035321  0.0350232  0.3076223    0.00000       Uiso       1.00
      H256          H  0.1391114  0.0350229  0.3076220    0.00000       Uiso       1.00
      C391          C  0.1400302  0.2334099  0.0468200    0.00000       Uiso       1.00
      C392          C  0.1427793  0.2228434  0.0355126    0.00000       Uiso       1.00
      C393          C  0.1324149  0.1979455  0.0397662    0.00000       Uiso       1.00
      C394          C  0.1265637  0.2182590  0.0625106    0.00000       Uiso       1.00
      C395          C  0.1162195  0.1933665  0.0667840    0.00000       Uiso       1.00
      C396          C  0.1189587  0.1827723  0.0554825    0.00000       Uiso       1.00
      H257          H  0.0749610  0.0478771  0.9991412    0.00000       Uiso       1.00
      H258          H  0.9637519  0.0679741  0.0197437    0.00000       Uiso       1.00
      H259          H  0.1244195  0.2256080  0.0719067    0.00000       Uiso       1.00
      H260          H  0.1526349  0.2339252  0.0230015    0.00000       Uiso       1.00
      C397          C  0.1075441  0.0143328  0.0141652    0.00000       Uiso       1.00
      C398          C  0.0918511  0.0277966  0.0001597    0.00000       Uiso       1.00
      C399          C  0.0875768  0.0381401  0.0104344    0.00000       Uiso       1.00
      C400          C  0.1188534  0.0115853  0.0387878    0.00000       Uiso       1.00
      C401          C  0.1145991  0.0219494  0.0490674    0.00000       Uiso       1.00
      C402          C  0.0988804  0.0354027  0.0350689    0.00000       Uiso       1.00
      H261          H  0.1346406  0.1906055  0.0304198    0.00000       Uiso       1.00
      H262          H  0.1552187  0.0793996  0.1823046    0.00000       Uiso       1.00
      H263          H  0.1313656  0.0017310  0.0500721    0.00000       Uiso       1.00
      H264          H  0.0824521  0.0299373  0.9812714    0.00000       Uiso       1.00
      C403          C  0.9209519  0.0141638  0.0143319    0.00000       Uiso       1.00
      C404          C  0.9361041  0.0001598  0.0277889    0.00000       Uiso       1.00
      C405          C  0.9609966  0.0104355  0.0381335    0.00000       Uiso       1.00
      C406          C  0.9315164  0.0387844  0.0115930    0.00000       Uiso       1.00
      C407          C  0.9564140  0.0490644  0.0219593    0.00000       Uiso       1.00
      C408          C  0.9715884  0.0350672  0.0354059    0.00000       Uiso       1.00
      H265          H  0.0863868  0.0303988  0.1906105    0.00000       Uiso       1.00
      H266          H  0.1064769  0.1823074  0.0793947    0.00000       Uiso       1.00
      H267          H  0.9204327  0.0500666  0.0017450    0.00000       Uiso       1.00
      H268          H  0.9287552  0.9812724  0.0299255    0.00000       Uiso       1.00
      C409          C  0.1401982  0.0468183  0.2334102    0.00000       Uiso       1.00
      C410          C  0.1155770  0.0355031  0.2228449    0.00000       Uiso       1.00
      C411          C  0.1052972  0.0397537  0.1979476    0.00000       Uiso       1.00
      C412          C  0.1542033  0.0625149  0.2182588    0.00000       Uiso       1.00
      C413          C  0.1439279  0.0667862  0.1933665    0.00000       Uiso       1.00
      C414          C  0.1192955  0.0554761  0.1827737    0.00000       Uiso       1.00
      H269          H  0.9720585  0.9991456  0.0478690    0.00000       Uiso       1.00
      H270          H  0.1239454  0.0197256  0.0679791    0.00000       Uiso       1.00
      H271          H  0.1730911  0.0719157  0.2256071    0.00000       Uiso       1.00
      H272          H  0.1042936  0.0229869  0.2339277    0.00000       Uiso       1.00
      C415          C  0.1079969  0.1560859  0.0601805    0.00000       Uiso       1.00
      C416          C  0.1201613  0.1433389  0.0618809    0.00000       Uiso       1.00
      C417          C  0.1101635  0.1183562  0.0667484    0.00000       Uiso       1.00
      C418          C  0.0855418  0.1429537  0.0636432    0.00000       Uiso       1.00
      C419          C  0.0755629  0.1179782  0.0685255    0.00000       Uiso       1.00
      C420          C  0.0872217  0.1051636  0.0693631    0.00000       Uiso       1.00
      H273          H  0.0824186  0.0956746  0.0325445    0.00000       Uiso       1.00
      H274          H  0.0450998  0.0968587  0.0336365    0.00000       Uiso       1.00
      H275          H  0.0756093  0.1520078  0.0626015    0.00000       Uiso       1.00
      H276          H  0.1378653  0.1525999  0.0602243    0.00000       Uiso       1.00
      C421          C  0.0941831  0.0463639  0.0460963    0.00000       Uiso       1.00
      C422          C  0.0907195  0.0688183  0.0333099    0.00000       Uiso       1.00
      C423          C  0.0858352  0.0787973  0.0434230    0.00000       Uiso       1.00
      C424          C  0.0924831  0.0341999  0.0693074    0.00000       Uiso       1.00
      C425          C  0.0876138  0.0441979  0.0794232    0.00000       Uiso       1.00
      C426          C  0.0849972  0.0671387  0.0670586    0.00000       Uiso       1.00
      H277          H  0.1207292  0.1092589  0.0689757    0.00000       Uiso       1.00
      H278          H  0.1218244  0.0719513  0.1085621    0.00000       Uiso       1.00
      H279          H  0.0941376  0.0164950  0.0794066    0.00000       Uiso       1.00
      H280          H  0.0917602  0.0787471  0.0153644    0.00000       Uiso       1.00
      C427          C  0.9982743  0.0460928  0.0463683    0.00000       Uiso       1.00
      C428          C  0.0114063  0.0333061  0.0688223    0.00000       Uiso       1.00
      C429          C  0.0363820  0.0434203  0.0787999    0.00000       Uiso       1.00
      C430          C  0.0110205  0.0693033  0.0342039    0.00000       Uiso       1.00
      C431          C  0.0360031  0.0794213  0.0442008    0.00000       Uiso       1.00
      C432          C  0.0491960  0.0670571  0.0671413    0.00000       Uiso       1.00
      H281          H  0.0575025  0.0689657  0.1092600    0.00000       Uiso       1.00
      H282          H  0.0586823  0.1085650  0.0719359    0.00000       Uiso       1.00
      H283          H  0.0017567  0.0794017  0.0165016    0.00000       Uiso       1.00
      H284          H  0.0023521  0.0153613  0.0787549    0.00000       Uiso       1.00
      C433          C  0.1082702  0.0601749  0.1560872    0.00000       Uiso       1.00
      C434          C  0.0850580  0.0618718  0.1433416    0.00000       Uiso       1.00
      C435          C  0.0749401  0.0667420  0.1183584    0.00000       Uiso       1.00
      C436          C  0.1210587  0.0636457  0.1429531    0.00000       Uiso       1.00
      C437          C  0.1109438  0.0685317  0.1179768    0.00000       Uiso       1.00
      C438          C  0.0873054  0.0693640  0.1051637    0.00000       Uiso       1.00
      H285          H  0.0457940  0.0325403  0.0956791    0.00000       Uiso       1.00
      H286          H  0.0853834  0.0336334  0.0968576    0.00000       Uiso       1.00
      H287          H  0.1390055  0.0626080  0.1520046    0.00000       Uiso       1.00
      H288          H  0.0749574  0.0602066  0.1526066    0.00000       Uiso       1.00
      C439          C  0.6146843  0.7960398  0.4531429    0.00000       Uiso       1.00
      C440          C  0.6136026  0.8166322  0.4519110    0.00000       Uiso       1.00
      C441          C  0.5922427  0.8172867  0.4495167    0.00000       Uiso       1.00
      C442          C  0.5918154  0.8376389  0.4495274    0.00000       Uiso       1.00
      C443          C  0.6130899  0.8573245  0.4532973    0.00000       Uiso       1.00
      C444          C  0.6344970  0.8561270  0.4560378    0.00000       Uiso       1.00
      C445          C  0.6348247  0.8368859  0.4536810    0.00000       Uiso       1.00
        O1          O  0.5958551  0.7744467  0.4526264    0.00000       Uiso       1.00
      H289          H  0.5758432  0.8019160  0.4476136    0.00000       Uiso       1.00
      H290          H  0.5747111  0.8375509  0.4468198    0.00000       Uiso       1.00
      H291          H  0.6513364  0.8695061  0.4615596    0.00000       Uiso       1.00
      C446          C  0.7811067  0.9427107  0.4530804    0.00000       Uiso       1.00
      C447          C  0.7605078  0.9222737  0.4518341    0.00000       Uiso       1.00
      C448          C  0.7598526  0.9026458  0.4494518    0.00000       Uiso       1.00
      C449          C  0.7395003  0.8818547  0.4494695    0.00000       Uiso       1.00
      C450          C  0.7198175  0.8796772  0.4532406    0.00000       Uiso       1.00
      C451          C  0.7210133  0.8995556  0.4559572    0.00000       Uiso       1.00
      C452          C  0.7402530  0.9214817  0.4535906    0.00000       Uiso       1.00
        O2          O  0.8027090  0.9459739  0.4525967    0.00000       Uiso       1.00
      H292          H  0.7752250  0.9035072  0.4475646    0.00000       Uiso       1.00
      H293          H  0.7395921  0.8675408  0.4467739    0.00000       Uiso       1.00
      H294          H  0.7076418  0.8975080  0.4614771    0.00000       Uiso       1.00
      C453          C  0.6344661  0.9624862  0.4531015    0.00000       Uiso       1.00
      C454          C  0.6548931  0.9635757  0.4518369    0.00000       Uiso       1.00
      C455          C  0.6745024  0.9849421  0.4494212    0.00000       Uiso       1.00
      C456          C  0.6952870  0.9853787  0.4494091    0.00000       Uiso       1.00
      C457          C  0.6974705  0.9641059  0.4531770    0.00000       Uiso       1.00
      C458          C  0.6776089  0.9426933  0.4559258    0.00000       Uiso       1.00
      C459          C  0.6556913  0.9423563  0.4535997    0.00000       Uiso       1.00
        O3          O  0.6311929  0.9813167  0.4525893    0.00000       Uiso       1.00
      H295          H  0.6736248  0.0013350  0.4475312    0.00000       Uiso       1.00
      H296          H  0.7095932  0.0024860  0.4466960    0.00000       Uiso       1.00
      H297          H  0.6796685  0.9258554  0.4614390    0.00000       Uiso       1.00
      C460          C  0.6155681  0.9414517  0.4562165    0.00000       Uiso       1.00
      C461          C  0.6151164  0.9204029  0.4567871    0.00000       Uiso       1.00
      C462          C  0.5954915  0.8990794  0.4593951    0.00000       Uiso       1.00
      C463          C  0.5949802  0.8784460  0.4590104    0.00000       Uiso       1.00
      C464          C  0.6134835  0.8790494  0.4546192    0.00000       Uiso       1.00
      C465          C  0.6328270  0.9008954  0.4514940    0.00000       Uiso       1.00
      C466          C  0.6348875  0.9210728  0.4542895    0.00000       Uiso       1.00
        O4          O  0.5975576  0.9439721  0.4579922    0.00000       Uiso       1.00
      H298          H  0.5805634  0.8984579  0.4618275    0.00000       Uiso       1.00
      H299          H  0.5798538  0.8622185  0.4619879    0.00000       Uiso       1.00
      H300          H  0.6457022  0.9027286  0.4454606    0.00000       Uiso       1.00
      C467          C  0.7820708  0.9616274  0.4561543    0.00000       Uiso       1.00
      C468          C  0.7620359  0.9620857  0.4567026    0.00000       Uiso       1.00
      C469          C  0.7629251  0.9817312  0.4592591    0.00000       Uiso       1.00
      C470          C  0.7424115  0.9822432  0.4588582    0.00000       Uiso       1.00
      C471          C  0.7201303  0.9637157  0.4545070    0.00000       Uiso       1.00
      C472          C  0.7195284  0.9443538  0.4514300    0.00000       Uiso       1.00
      C473          C  0.7404486  0.9422991  0.4542377    0.00000       Uiso       1.00
        O5          O  0.8043742  0.9796412  0.4579230    0.00000       Uiso       1.00
      H301          H  0.7796577  0.9966716  0.4616744    0.00000       Uiso       1.00
      H302          H  0.7442799  0.9973883  0.4617998    0.00000       Uiso       1.00
      H303          H  0.7024629  0.9314592  0.4454140    0.00000       Uiso       1.00
      C474          C  0.6357141  0.7950786  0.4562193    0.00000       Uiso       1.00
      C475          C  0.6567571  0.8151092  0.4567837    0.00000       Uiso       1.00
      C476          C  0.6780652  0.8142192  0.4593332    0.00000       Uiso       1.00
      C477          C  0.6986907  0.8347317  0.4589292    0.00000       Uiso       1.00
      C478          C  0.6980997  0.8570133  0.4545906    0.00000       Uiso       1.00
      C479          C  0.6762666  0.8576135  0.4515305    0.00000       Uiso       1.00
      C480          C  0.6560966  0.8366927  0.4543323    0.00000       Uiso       1.00
        O6          O  0.6331916  0.7727852  0.4579615    0.00000       Uiso       1.00
      H304          H  0.6786790  0.7974854  0.4617390    0.00000       Uiso       1.00
      H305          H  0.7149019  0.8328615  0.4618553    0.00000       Uiso       1.00
      H306          H  0.6744260  0.8746800  0.4455267    0.00000       Uiso       1.00
        B1          B  0.6078194  0.7598189  0.4556922    0.00000       Uiso       1.00
        B2          B  0.8173458  0.9694940  0.4556751    0.00000       Uiso       1.00
        B3          B  0.6076865  0.9693503  0.4556966    0.00000       Uiso       1.00
      C481          C  0.6344957  0.4531426  0.7960404    0.00000       Uiso       1.00
      C482          C  0.6549380  0.4519108  0.8166329    0.00000       Uiso       1.00
      C483          C  0.6745583  0.4495167  0.8172876    0.00000       Uiso       1.00
      C484          C  0.6953487  0.4495274  0.8376400    0.00000       Uiso       1.00
      C485          C  0.6975295  0.4532973  0.8573254    0.00000       Uiso       1.00
      C486          C  0.6776652  0.4560376  0.8561279    0.00000       Uiso       1.00
      C487          C  0.6557395  0.4536808  0.8368865    0.00000       Uiso       1.00
        O7          O  0.6312155  0.4526263  0.7744474    0.00000       Uiso       1.00
      H307          H  0.6736842  0.4476136  0.8019171    0.00000       Uiso       1.00
      H308          H  0.7096575  0.4468201  0.8375522    0.00000       Uiso       1.00
      H309          H  0.6797267  0.4615593  0.8695068    0.00000       Uiso       1.00
      C488          C  0.6146808  0.4530791  0.9427104    0.00000       Uiso       1.00
      C489          C  0.6135963  0.4518329  0.9222735    0.00000       Uiso       1.00
      C490          C  0.5922413  0.4494505  0.9026455    0.00000       Uiso       1.00
      C491          C  0.5918202  0.4494683  0.8818545    0.00000       Uiso       1.00
      C492          C  0.6130970  0.4532396  0.8796772    0.00000       Uiso       1.00
      C493          C  0.6344962  0.4559564  0.8995557    0.00000       Uiso       1.00
      C494          C  0.6348159  0.4535896  0.9214817    0.00000       Uiso       1.00
        O8          O  0.5958576  0.4525951  0.9459734    0.00000       Uiso       1.00
      H310          H  0.5758429  0.4475631  0.9035066    0.00000       Uiso       1.00
      H311          H  0.5747188  0.4467726  0.8675405    0.00000       Uiso       1.00
      H312          H  0.6513400  0.4614763  0.8975083    0.00000       Uiso       1.00
      C495          C  0.7811194  0.4531018  0.9624876    0.00000       Uiso       1.00
      C496          C  0.7605171  0.4518369  0.9635769    0.00000       Uiso       1.00
      C497          C  0.7598584  0.4494210  0.9849431    0.00000       Uiso       1.00
      C498          C  0.7394980  0.4494088  0.9853795    0.00000       Uiso       1.00
      C499          C  0.7198095  0.4531766  0.9641066    0.00000       Uiso       1.00
      C500          C  0.7210075  0.4559256  0.9426940    0.00000       Uiso       1.00
      C501          C  0.7402622  0.4535996  0.9423573    0.00000       Uiso       1.00
        O9          O  0.8027111  0.4525897  0.9813181    0.00000       Uiso       1.00
      H313          H  0.7752403  0.4475318  0.0013356    0.00000       Uiso       1.00
      H314          H  0.7395872  0.4466963  0.0024862    0.00000       Uiso       1.00
      H315          H  0.7076231  0.4614387  0.9258561    0.00000       Uiso       1.00
      C502          C  0.7820981  0.4562168  0.9414532    0.00000       Uiso       1.00
      C503          C  0.7620715  0.4567874  0.9204042    0.00000       Uiso       1.00
      C504          C  0.7629811  0.4593955  0.8990809    0.00000       Uiso       1.00
      C505          C  0.7424742  0.4590107  0.8784473    0.00000       Uiso       1.00
      C506          C  0.7201827  0.4546193  0.8790505    0.00000       Uiso       1.00
      C507          C  0.7195599  0.4514940  0.9008964    0.00000       Uiso       1.00
      C508          C  0.7404726  0.4542896  0.9210740    0.00000       Uiso       1.00
       O10          O  0.8044047  0.4579927  0.9439737    0.00000       Uiso       1.00
      H316          H  0.7797201  0.4618280  0.8984595    0.00000       Uiso       1.00
      H317          H  0.7443507  0.4619882  0.8622199    0.00000       Uiso       1.00
      H318          H  0.7024844  0.4454604  0.9027295    0.00000       Uiso       1.00
      C509          C  0.6357072  0.4561531  0.9616272    0.00000       Uiso       1.00
      C510          C  0.6567490  0.4567016  0.9620857    0.00000       Uiso       1.00
      C511          C  0.6780617  0.4592581  0.9817314    0.00000       Uiso       1.00
      C512          C  0.6986867  0.4588575  0.9822435    0.00000       Uiso       1.00
      C513          C  0.6980893  0.4545064  0.9637161    0.00000       Uiso       1.00
      C514          C  0.6762521  0.4514292  0.9443541    0.00000       Uiso       1.00
      C515          C  0.6560848  0.4542367  0.9422993    0.00000       Uiso       1.00
       O11          O  0.6331862  0.4579216  0.9796410    0.00000       Uiso       1.00
      H319          H  0.6786848  0.4616734  0.9966717    0.00000       Uiso       1.00
      H320          H  0.7149050  0.4617991  0.9973888    0.00000       Uiso       1.00
      H321          H  0.6744072  0.4454134  0.9314595    0.00000       Uiso       1.00
      C516          C  0.6155809  0.4562187  0.7950791    0.00000       Uiso       1.00
      C517          C  0.6151327  0.4567831  0.8151094    0.00000       Uiso       1.00
      C518          C  0.5954840  0.4593324  0.8142193    0.00000       Uiso       1.00
      C519          C  0.5949669  0.4589282  0.8347318    0.00000       Uiso       1.00
      C520          C  0.6135010  0.4545897  0.8570134    0.00000       Uiso       1.00
      C521          C  0.6328744  0.4515299  0.8576138    0.00000       Uiso       1.00
      C522          C  0.6349255  0.4543318  0.8366932    0.00000       Uiso       1.00
       O12          O  0.5975523  0.4579609  0.7727856    0.00000       Uiso       1.00
      H322          H  0.5805420  0.4617381  0.7974854    0.00000       Uiso       1.00
      H323          H  0.5798115  0.4618542  0.8328614    0.00000       Uiso       1.00
      H324          H  0.6457778  0.4455261  0.8746805    0.00000       Uiso       1.00
        B4          B  0.6076890  0.4556918  0.7598194    0.00000       Uiso       1.00
        B5          B  0.6078193  0.4556735  0.9694935    0.00000       Uiso       1.00
        B6          B  0.8173586  0.4556971  0.9693520    0.00000       Uiso       1.00
       Si1         Si  0.5695906  0.3822574  0.3822492    0.00000       Uiso       1.00
        B7          B  0.5408356  0.3911351  0.3903415    0.00000       Uiso       1.00
       O13          O  0.5592263  0.4022287  0.3794259    0.00000       Uiso       1.00
       O14          O  0.5592373  0.3547553  0.4022285    0.00000       Uiso       1.00
        B8          B  0.5408378  0.3365394  0.3911399    0.00000       Uiso       1.00
        B9          B  0.5408340  0.3903393  0.3365359    0.00000       Uiso       1.00
       O15          O  0.5592151  0.3794119  0.3547460    0.00000       Uiso       1.00
       O16          O  0.5213994  0.3684537  0.3889031    0.00000       Uiso       1.00
       O17          O  0.5214074  0.3412252  0.3684554    0.00000       Uiso       1.00
       O18          O  0.5214167  0.3889239  0.3412277    0.00000       Uiso       1.00
       Si2         Si  0.5113283  0.3628423  0.3628308    0.00000       Uiso       1.00
       O19          O  0.6004019  0.3925164  0.3925237    0.00000       Uiso       1.00
      H325          H  0.6048875  0.4081982  0.3801061    0.00000       Uiso       1.00
       O20          O  0.4805163  0.3525788  0.3525688    0.00000       Uiso       1.00
      H326          H  0.4760228  0.3498373  0.3376840    0.00000       Uiso       1.00
       Si3         Si  0.1949118  0.3822472  0.3822555    0.00000       Uiso       1.00
       B10          B  0.2406372  0.3903399  0.3911337    0.00000       Uiso       1.00
       O21          O  0.2224243  0.3794240  0.4022271    0.00000       Uiso       1.00
       O22          O  0.1977423  0.4022265  0.3547535    0.00000       Uiso       1.00
       B11          B  0.1868373  0.3911380  0.3365377    0.00000       Uiso       1.00
       B12          B  0.1860372  0.3365340  0.3903376    0.00000       Uiso       1.00
       O23          O  0.1749385  0.3547439  0.3794100    0.00000       Uiso       1.00
       O24          O  0.2359537  0.3889015  0.3684523    0.00000       Uiso       1.00
       O25          O  0.1882693  0.3684536  0.3412236    0.00000       Uiso       1.00
       O26          O  0.2087310  0.3412260  0.3889223    0.00000       Uiso       1.00
       Si4         Si  0.2143409  0.3628291  0.3628408    0.00000       Uiso       1.00
       O27          O  0.1846336  0.3925214  0.3925143    0.00000       Uiso       1.00
      H327          H  0.1834123  0.3801038  0.4081961    0.00000       Uiso       1.00
       O28          O  0.2246277  0.3525674  0.3525775    0.00000       Uiso       1.00
      H328          H  0.2114949  0.3376825  0.3498360    0.00000       Uiso       1.00
      C523          C  0.6146840  0.9426818  0.7960403    0.00000       Uiso       1.00
      C524          C  0.6136023  0.9222396  0.8166327    0.00000       Uiso       1.00
      C525          C  0.5922424  0.9026192  0.8172873    0.00000       Uiso       1.00
      C526          C  0.5918151  0.8818290  0.8376395    0.00000       Uiso       1.00
      C527          C  0.6130897  0.8796484  0.8573250    0.00000       Uiso       1.00
      C528          C  0.6344968  0.8995126  0.8561276    0.00000       Uiso       1.00
      C529          C  0.6348245  0.9214383  0.8368864    0.00000       Uiso       1.00
       O29          O  0.5958549  0.9459621  0.7744473    0.00000       Uiso       1.00
      H329          H  0.5758429  0.9034935  0.8019166    0.00000       Uiso       1.00
      H330          H  0.5747109  0.8675202  0.8375515    0.00000       Uiso       1.00
      H331          H  0.6513361  0.8974512  0.8695067    0.00000       Uiso       1.00
      C530          C  0.7811063  0.9624974  0.9427112    0.00000       Uiso       1.00
      C531          C  0.7605074  0.9635816  0.9222742    0.00000       Uiso       1.00
      C532          C  0.7598522  0.9849367  0.9026463    0.00000       Uiso       1.00
      C533          C  0.7395000  0.9853576  0.8818553    0.00000       Uiso       1.00
      C534          C  0.7198172  0.9640810  0.8796777    0.00000       Uiso       1.00
      C535          C  0.7210130  0.9426818  0.8995561    0.00000       Uiso       1.00
      C536          C  0.7402527  0.9423622  0.9214823    0.00000       Uiso       1.00
       O30          O  0.8027086  0.9813204  0.9459744    0.00000       Uiso       1.00
      H332          H  0.7752254  0.0013352  0.9035077    0.00000       Uiso       1.00
      H333          H  0.7395926  0.0024592  0.8675413    0.00000       Uiso       1.00
      H334          H  0.7076415  0.9258379  0.8975085    0.00000       Uiso       1.00
      C537          C  0.6344659  0.7960588  0.9624868    0.00000       Uiso       1.00
      C538          C  0.6548929  0.8166612  0.9635763    0.00000       Uiso       1.00
      C539          C  0.6745022  0.8173200  0.9849427    0.00000       Uiso       1.00
      C540          C  0.6952868  0.8376802  0.9853793    0.00000       Uiso       1.00
      C541          C  0.6974703  0.8573687  0.9641065    0.00000       Uiso       1.00
      C542          C  0.6776087  0.8561706  0.9426939    0.00000       Uiso       1.00
      C543          C  0.6556910  0.8369159  0.9423569    0.00000       Uiso       1.00
       O31          O  0.6311927  0.7744673  0.9813173    0.00000       Uiso       1.00
      H335          H  0.6736245  0.8019395  0.0013351    0.00000       Uiso       1.00
      H336          H  0.7095931  0.8375925  0.0024861    0.00000       Uiso       1.00
      H337          H  0.6796682  0.8695550  0.9258559    0.00000       Uiso       1.00
      C544          C  0.6155679  0.7950801  0.9414524    0.00000       Uiso       1.00
      C545          C  0.6151162  0.8151065  0.9204035    0.00000       Uiso       1.00
      C546          C  0.5954912  0.8141969  0.8990800    0.00000       Uiso       1.00
      C547          C  0.5949799  0.8347038  0.8784466    0.00000       Uiso       1.00
      C548          C  0.6134833  0.8569952  0.8790499    0.00000       Uiso       1.00
      C549          C  0.6328268  0.8576181  0.9008960    0.00000       Uiso       1.00
      C550          C  0.6348872  0.8367055  0.9210734    0.00000       Uiso       1.00
       O32          O  0.5975574  0.7727735  0.9439726    0.00000       Uiso       1.00
      H338          H  0.5805632  0.7974579  0.8984585    0.00000       Uiso       1.00
      H339          H  0.5798536  0.8328273  0.8622191    0.00000       Uiso       1.00
      H340          H  0.6457019  0.8746935  0.9027292    0.00000       Uiso       1.00
      C551          C  0.7820705  0.9414709  0.9616280    0.00000       Uiso       1.00
      C552          C  0.7620355  0.9204292  0.9620863    0.00000       Uiso       1.00
      C553          C  0.7629248  0.8991166  0.9817318    0.00000       Uiso       1.00
      C554          C  0.7424112  0.8784916  0.9822437    0.00000       Uiso       1.00
      C555          C  0.7201300  0.8790889  0.9637162    0.00000       Uiso       1.00
      C556          C  0.7195281  0.9009261  0.9443544    0.00000       Uiso       1.00
      C557          C  0.7404483  0.9210933  0.9422997    0.00000       Uiso       1.00
       O33          O  0.8043739  0.9439921  0.9796418    0.00000       Uiso       1.00
      H341          H  0.7796574  0.8984936  0.9966722    0.00000       Uiso       1.00
      H342          H  0.7442797  0.8622733  0.9973889    0.00000       Uiso       1.00
      H343          H  0.7024626  0.9027708  0.9314597    0.00000       Uiso       1.00
      C558          C  0.6357138  0.9615967  0.7950791    0.00000       Uiso       1.00
      C559          C  0.6567568  0.9620450  0.8151097    0.00000       Uiso       1.00
      C560          C  0.6780649  0.9816936  0.8142198    0.00000       Uiso       1.00
      C561          C  0.6986904  0.9822109  0.8347323    0.00000       Uiso       1.00
      C562          C  0.6980994  0.9636769  0.8570139    0.00000       Uiso       1.00
      C563          C  0.6762663  0.9443035  0.8576140    0.00000       Uiso       1.00
      C564          C  0.6560963  0.9422523  0.8366932    0.00000       Uiso       1.00
       O34          O  0.6331913  0.9796253  0.7727858    0.00000       Uiso       1.00
      H344          H  0.6786788  0.9966356  0.7974859    0.00000       Uiso       1.00
      H345          H  0.7149016  0.9973663  0.8328621    0.00000       Uiso       1.00
      H346          H  0.6744257  0.9314000  0.8746806    0.00000       Uiso       1.00
       B13          B  0.6078190  0.9694884  0.7598194    0.00000       Uiso       1.00
       B14          B  0.8173454  0.9693590  0.9694946    0.00000       Uiso       1.00
       B15          B  0.6076863  0.7598198  0.9693510    0.00000       Uiso       1.00
       Si5         Si  0.1949122  0.0075854  0.3822474    0.00000       Uiso       1.00
       B16          B  0.2406375  0.0363404  0.3903401    0.00000       Uiso       1.00
       O35          O  0.2224247  0.0179497  0.3794242    0.00000       Uiso       1.00
       O36          O  0.1977427  0.0179386  0.4022267    0.00000       Uiso       1.00
       B17          B  0.1868377  0.0363379  0.3911381    0.00000       Uiso       1.00
       B18          B  0.1860375  0.0363418  0.3365342    0.00000       Uiso       1.00
       O37          O  0.1749389  0.0179607  0.3547441    0.00000       Uiso       1.00
       O38          O  0.2359540  0.0557765  0.3889017    0.00000       Uiso       1.00
       O39          O  0.1882695  0.0557683  0.3684537    0.00000       Uiso       1.00
       O40          O  0.2087314  0.0557591  0.3412262    0.00000       Uiso       1.00
       Si6         Si  0.2143412  0.0658474  0.3628293    0.00000       Uiso       1.00
       O41          O  0.1846333  0.9767739  0.3925216    0.00000       Uiso       1.00
      H347          H  0.1834120  0.9722884  0.3801040    0.00000       Uiso       1.00
       O42          O  0.2246280  0.0966594  0.3525676    0.00000       Uiso       1.00
      H348          H  0.2114952  0.1011528  0.3376827    0.00000       Uiso       1.00
      C565          C  0.1240372  0.9624957  0.7960429    0.00000       Uiso       1.00
      C566          C  0.1252690  0.9635773  0.8166353    0.00000       Uiso       1.00
      C567          C  0.1276633  0.9849373  0.8172899    0.00000       Uiso       1.00
      C568          C  0.1276526  0.9853646  0.8376422    0.00000       Uiso       1.00
      C569          C  0.1238827  0.9640899  0.8573276    0.00000       Uiso       1.00
      C570          C  0.1211423  0.9426829  0.8561301    0.00000       Uiso       1.00
      C571          C  0.1234991  0.9423553  0.8368888    0.00000       Uiso       1.00
       O43          O  0.1245535  0.9813248  0.7744498    0.00000       Uiso       1.00
      H349          H  0.1295671  0.0013368  0.8019194    0.00000       Uiso       1.00
      H350          H  0.1303608  0.0024688  0.8375543    0.00000       Uiso       1.00
      H351          H  0.1156206  0.9258437  0.8695090    0.00000       Uiso       1.00
      C572          C  0.1241005  0.7960742  0.9427130    0.00000       Uiso       1.00
      C573          C  0.1253468  0.8166729  0.9222761    0.00000       Uiso       1.00
      C574          C  0.1277291  0.8173281  0.9026482    0.00000       Uiso       1.00
      C575          C  0.1277113  0.8376802  0.8818572    0.00000       Uiso       1.00
      C576          C  0.1239400  0.8573630  0.8796798    0.00000       Uiso       1.00
      C577          C  0.1212233  0.8561671  0.8995581    0.00000       Uiso       1.00
      C578          C  0.1235901  0.8369274  0.9214842    0.00000       Uiso       1.00
       O44          O  0.1245843  0.7744718  0.9459760    0.00000       Uiso       1.00
      H352          H  0.1296164  0.8019558  0.9035095    0.00000       Uiso       1.00
      H353          H  0.1304069  0.8375884  0.8675433    0.00000       Uiso       1.00
      H354          H  0.1157034  0.8695385  0.8975106    0.00000       Uiso       1.00
      C579          C  0.1240786  0.9427138  0.9624893    0.00000       Uiso       1.00
      C580          C  0.1253433  0.9222869  0.9635787    0.00000       Uiso       1.00
      C581          C  0.1277592  0.9026778  0.9849449    0.00000       Uiso       1.00
      C582          C  0.1277713  0.8818932  0.9853814    0.00000       Uiso       1.00
      C583          C  0.1240035  0.8797097  0.9641086    0.00000       Uiso       1.00
      C584          C  0.1212545  0.8995713  0.9426961    0.00000       Uiso       1.00
      C585          C  0.1235805  0.9214888  0.9423592    0.00000       Uiso       1.00
       O45          O  0.1245906  0.9459869  0.9813197    0.00000       Uiso       1.00
      H355          H  0.1296498  0.9035568  0.0013374    0.00000       Uiso       1.00
      H356          H  0.1304852  0.8675884  0.0024882    0.00000       Uiso       1.00
      H357          H  0.1157413  0.8975117  0.9258581    0.00000       Uiso       1.00
      C586          C  0.1209635  0.9616117  0.9414549    0.00000       Uiso       1.00
      C587          C  0.1203928  0.9620634  0.9204060    0.00000       Uiso       1.00
      C588          C  0.1177847  0.9816882  0.8990827    0.00000       Uiso       1.00
      C589          C  0.1181694  0.9821996  0.8784493    0.00000       Uiso       1.00
      C590          C  0.1225608  0.9636963  0.8790525    0.00000       Uiso       1.00
      C591          C  0.1256861  0.9443529  0.9008984    0.00000       Uiso       1.00
      C592          C  0.1228906  0.9422925  0.9210759    0.00000       Uiso       1.00
       O46          O  0.1191876  0.9796220  0.9439753    0.00000       Uiso       1.00
      H358          H  0.1153523  0.9966162  0.8984612    0.00000       Uiso       1.00
      H359          H  0.1151919  0.9973260  0.8622218    0.00000       Uiso       1.00
      H360          H  0.1317196  0.9314778  0.9027316    0.00000       Uiso       1.00
      C593          C  0.1210265  0.7951098  0.9616296    0.00000       Uiso       1.00
      C594          C  0.1204781  0.8151447  0.9620880    0.00000       Uiso       1.00
      C595          C  0.1179217  0.8142554  0.9817336    0.00000       Uiso       1.00
      C596          C  0.1183224  0.8347690  0.9822456    0.00000       Uiso       1.00
      C597          C  0.1226735  0.8570500  0.9637183    0.00000       Uiso       1.00
      C598          C  0.1257506  0.8576520  0.9443563    0.00000       Uiso       1.00
      C599          C  0.1229430  0.8367319  0.9423016    0.00000       Uiso       1.00
       O47          O  0.1192579  0.7728066  0.9796433    0.00000       Uiso       1.00
      H361          H  0.1155064  0.7975229  0.9966739    0.00000       Uiso       1.00
      H362          H  0.1153808  0.8329005  0.9973907    0.00000       Uiso       1.00
      H363          H  0.1317665  0.8747175  0.9314619    0.00000       Uiso       1.00
      C600          C  0.1209610  0.9414660  0.7950816    0.00000       Uiso       1.00
      C601          C  0.1203967  0.9204232  0.8151120    0.00000       Uiso       1.00
      C602          C  0.1178472  0.8991151  0.8142220    0.00000       Uiso       1.00
      C603          C  0.1182513  0.8784897  0.8347343    0.00000       Uiso       1.00
      C604          C  0.1225900  0.8790807  0.8570159    0.00000       Uiso       1.00
      C605          C  0.1256498  0.9009136  0.8576162    0.00000       Uiso       1.00
      C606          C  0.1228479  0.9210835  0.8366956    0.00000       Uiso       1.00
       O48          O  0.1192187  0.9439886  0.7727882    0.00000       Uiso       1.00
      H364          H  0.1154414  0.8985012  0.7974881    0.00000       Uiso       1.00
      H365          H  0.1153252  0.8622785  0.8328640    0.00000       Uiso       1.00
      H366          H  0.1316537  0.9027542  0.8746829    0.00000       Uiso       1.00
       B19          B  0.1214878  0.9693606  0.7598220    0.00000       Uiso       1.00
       B20          B  0.1215060  0.7598351  0.9694961    0.00000       Uiso       1.00
       B21          B  0.1214833  0.9694932  0.9693536    0.00000       Uiso       1.00
       Si7         Si  0.1949239  0.3822526  0.0075905    0.00000       Uiso       1.00
       B22          B  0.1860459  0.3903450  0.0363453    0.00000       Uiso       1.00
       O49          O  0.1749524  0.3794292  0.0179546    0.00000       Uiso       1.00
       O50          O  0.2224260  0.4022321  0.0179439    0.00000       Uiso       1.00
       B23          B  0.2406419  0.3911436  0.0363433    0.00000       Uiso       1.00
       B24          B  0.1868418  0.3365394  0.0363469    0.00000       Uiso       1.00
       O51          O  0.1977694  0.3547494  0.0179660    0.00000       Uiso       1.00
       O52          O  0.2087273  0.3889067  0.0557815    0.00000       Uiso       1.00
       O53          O  0.2359560  0.3684592  0.0557737    0.00000       Uiso       1.00
       O54          O  0.1882571  0.3412313  0.0557641    0.00000       Uiso       1.00
       Si8         Si  0.2143388  0.3628345  0.0658525    0.00000       Uiso       1.00
       O55          O  0.1846642  0.3925262  0.9767795    0.00000       Uiso       1.00
      H367          H  0.1689824  0.3801085  0.9722939    0.00000       Uiso       1.00
       O56          O  0.2246022  0.3525727  0.0966645    0.00000       Uiso       1.00
      H368          H  0.2273436  0.3376879  0.1011580    0.00000       Uiso       1.00
