data_59
_audit_creation_date              0000-00-00
_audit_creation_method            'LanYouShi'
_symmetry_space_group_name_H-M    'P1'
_cell_length_a                    66.9181976
_cell_length_b                    66.9181976
_cell_length_c                    66.9181976
_cell_angle_alpha                 119.9972992
_cell_angle_beta                  119.9972992
_cell_angle_gamma                 60.0000000
loop_
_atom_site_label
_atom_site_type_symbol
_atom_site_fract_x
_atom_site_fract_y
_atom_site_fract_z
_atom_site_U_iso_or_equiv
_atom_site_adp_type
_atom_site_occupancy
        C1          C  0.4029051  0.4029061  0.5432752    0.00000       Uiso       1.00
        C2          C  0.3903577  0.4263655  0.5414777    0.00000       Uiso       1.00
        C3          C  0.4010519  0.4371340  0.5376348    0.00000       Uiso       1.00
        C4          C  0.4263644  0.3903588  0.5414777    0.00000       Uiso       1.00
        C5          C  0.4371096  0.4009691  0.5375289    0.00000       Uiso       1.00
        C6          C  0.4245959  0.4245418  0.5354789    0.00000       Uiso       1.00
        H1          H  0.4636446  0.6901892  0.6091986    0.00000       Uiso       1.00
        H2          H  0.4368843  0.3712347  0.5429642    0.00000       Uiso       1.00
        H3          H  0.3712336  0.4368853  0.5429642    0.00000       Uiso       1.00
        C7          C  0.4567201  0.7374565  0.5970904    0.00000       Uiso       1.00
        C8          C  0.4585172  0.7247465  0.6096373    0.00000       Uiso       1.00
        C9          C  0.4624665  0.6994427  0.5990275    0.00000       Uiso       1.00
       C10          C  0.4585187  0.7247480  0.5736321    0.00000       Uiso       1.00
       C11          C  0.4623617  0.6994432  0.5628639    0.00000       Uiso       1.00
       C12          C  0.4645170  0.6863351  0.5754557    0.00000       Uiso       1.00
        H4          H  0.3908058  0.4553661  0.3098168    0.00000       Uiso       1.00
        H5          H  0.4570326  0.7348391  0.5631126    0.00000       Uiso       1.00
        H6          H  0.4570299  0.7348365  0.6287606    0.00000       Uiso       1.00
       C13          C  0.7374551  0.4567213  0.5970903    0.00000       Uiso       1.00
       C14          C  0.7247466  0.4585198  0.5736320    0.00000       Uiso       1.00
       C15          C  0.6994427  0.4624700  0.5628877    0.00000       Uiso       1.00
       C16          C  0.7247451  0.4585184  0.6096372    0.00000       Uiso       1.00
       C17          C  0.6994402  0.4623609  0.5989432    0.00000       Uiso       1.00
       C18          C  0.6863338  0.4645185  0.5754007    0.00000       Uiso       1.00
        H7          H  0.4553559  0.3907978  0.5363506    0.00000       Uiso       1.00
        H8          H  0.7348351  0.4570310  0.6287605    0.00000       Uiso       1.00
        H9          H  0.7348378  0.4570337  0.5631125    0.00000       Uiso       1.00
       C19          C  0.4029166  0.4029176  0.2625517    0.00000       Uiso       1.00
       C20          C  0.4263754  0.3903697  0.2752607    0.00000       Uiso       1.00
       C21          C  0.4371431  0.4010634  0.3005650    0.00000       Uiso       1.00
       C22          C  0.3903687  0.4263764  0.2752607    0.00000       Uiso       1.00
       C23          C  0.4009776  0.4371204  0.3005638    0.00000       Uiso       1.00
       C24          C  0.4245500  0.4246066  0.3136718    0.00000       Uiso       1.00
       H10          H  0.6901897  0.4636501  0.5446425    0.00000       Uiso       1.00
       C25          C  0.5000004  0.5000002  0.5000020    0.00000       Uiso       1.00
       H11          H  0.3712450  0.4368967  0.2651703    0.00000       Uiso       1.00
       H12          H  0.4368956  0.3712460  0.2651703    0.00000       Uiso       1.00
       Br1         Br  0.3827845  0.4689184  0.5345436    0.00000       Uiso       1.00
       Br2         Br  0.6828310  0.4654492  0.6172082    0.00000       Uiso       1.00
       Br3         Br  0.4689278  0.3827968  0.3171727    0.00000       Uiso       1.00
       Br4         Br  0.4654539  0.6828362  0.5310808    0.00000       Uiso       1.00
       C26          C  0.4359485  0.4357786  0.5309423    0.00000       Uiso       1.00
       C27          C  0.4331464  0.4608714  0.5424652    0.00000       Uiso       1.00
       C28          C  0.4437090  0.4713477  0.5381305    0.00000       Uiso       1.00
       C29          C  0.4496728  0.4215054  0.5149526    0.00000       Uiso       1.00
       C30          C  0.4602147  0.4319767  0.5105977    0.00000       Uiso       1.00
       C31          C  0.4574227  0.4570816  0.5221146    0.00000       Uiso       1.00
       H13          H  0.5022575  0.6071302  0.5795296    0.00000       Uiso       1.00
       H14          H  0.4518583  0.4022559  0.5053775    0.00000       Uiso       1.00
       H15          H  0.4231022  0.4723714  0.5552148    0.00000       Uiso       1.00
       C32          C  0.4690537  0.6592099  0.5642192    0.00000       Uiso       1.00
       C33          C  0.4850458  0.6437686  0.5784915    0.00000       Uiso       1.00
       C34          C  0.4894021  0.6184012  0.5680210    0.00000       Uiso       1.00
       C35          C  0.4575294  0.6484435  0.5391275    0.00000       Uiso       1.00
       C36          C  0.4618655  0.6230703  0.5286520    0.00000       Uiso       1.00
       C37          C  0.4778836  0.6076065  0.5429172    0.00000       Uiso       1.00
       H16          H  0.4204756  0.4701424  0.3928759    0.00000       Uiso       1.00
       H17          H  0.4447789  0.6597377  0.5276282    0.00000       Uiso       1.00
       H18          H  0.4946226  0.6512570  0.5977399    0.00000       Uiso       1.00
       C38          C  0.6592087  0.4690553  0.5640485    0.00000       Uiso       1.00
       C39          C  0.6437678  0.4850550  0.5503350    0.00000       Uiso       1.00
       C40          C  0.6184004  0.4894094  0.5397934    0.00000       Uiso       1.00
       C41          C  0.6484423  0.4575220  0.5668395    0.00000       Uiso       1.00
       C42          C  0.6230698  0.4618550  0.5562758    0.00000       Uiso       1.00
       C43          C  0.6076063  0.4778810  0.5425730    0.00000       Uiso       1.00
       H19          H  0.4701438  0.4204673  0.4977467    0.00000       Uiso       1.00
       H20          H  0.6597372  0.4447646  0.5768752    0.00000       Uiso       1.00
       H21          H  0.6512563  0.4946371  0.5481577    0.00000       Uiso       1.00
       C44          C  0.4357851  0.4359588  0.3407963    0.00000       Uiso       1.00
       C45          C  0.4608759  0.4331654  0.3515629    0.00000       Uiso       1.00
       C46          C  0.4713510  0.4437292  0.3769346    0.00000       Uiso       1.00
       C47          C  0.4215119  0.4496754  0.3562365    0.00000       Uiso       1.00
       C48          C  0.4319825  0.4602174  0.3816032    0.00000       Uiso       1.00
       C49          C  0.4570847  0.4574353  0.3923977    0.00000       Uiso       1.00
       H22          H  0.6071268  0.5022677  0.5298725    0.00000       Uiso       1.00
       H23          H  0.4022638  0.4518553  0.3487484    0.00000       Uiso       1.00
       H24          H  0.4723752  0.4231276  0.3402689    0.00000       Uiso       1.00
       Br5         Br  0.4397059  0.5053558  0.5549371    0.00000       Uiso       1.00
       Br6         Br  0.6098743  0.4450305  0.5602600    0.00000       Uiso       1.00
       Br7         Br  0.5053557  0.4397391  0.3901277    0.00000       Uiso       1.00
       Br8         Br  0.4450598  0.6098696  0.4946451    0.00000       Uiso       1.00
       C50          C  0.4685940  0.4683191  0.5173271    0.00000       Uiso       1.00
       C51          C  0.4561974  0.4919735  0.5155943    0.00000       Uiso       1.00
       C52          C  0.4663863  0.5022842  0.5106340    0.00000       Uiso       1.00
       C53          C  0.4914781  0.4552891  0.5137982    0.00000       Uiso       1.00
       C54          C  0.5016477  0.4655968  0.5088229    0.00000       Uiso       1.00
       C55          C  0.4897662  0.4896842  0.5079694    0.00000       Uiso       1.00
       H25          H  0.4946596  0.5319797  0.5454896    0.00000       Uiso       1.00
       H26          H  0.5016001  0.4370015  0.5148598    0.00000       Uiso       1.00
       H27          H  0.4381554  0.5022658  0.5172825    0.00000       Uiso       1.00
       C56          C  0.4826711  0.5804112  0.5316795    0.00000       Uiso       1.00
       C57          C  0.4862003  0.5670283  0.5447096    0.00000       Uiso       1.00
       C58          C  0.4911783  0.5415753  0.5344039    0.00000       Uiso       1.00
       C59          C  0.4844045  0.5674217  0.5080261    0.00000       Uiso       1.00
       C60          C  0.4893672  0.5419618  0.4977176    0.00000       Uiso       1.00
       C61          C  0.4920332  0.5285167  0.5103178    0.00000       Uiso       1.00
       H28          H  0.4545046  0.5188484  0.4680235    0.00000       Uiso       1.00
       H29          H  0.4827188  0.5768592  0.4977345    0.00000       Uiso       1.00
       H30          H  0.4851390  0.5762579  0.5629970    0.00000       Uiso       1.00
       C62          C  0.5804112  0.4826692  0.5314019    0.00000       Uiso       1.00
       C63          C  0.5670293  0.4862012  0.5085201    0.00000       Uiso       1.00
       C64          C  0.5415770  0.4911790  0.4983524    0.00000       Uiso       1.00
       C65          C  0.5674210  0.4844015  0.5437981    0.00000       Uiso       1.00
       C66          C  0.5419618  0.4893627  0.5336109    0.00000       Uiso       1.00
       C67          C  0.5285180  0.4920303  0.5102333    0.00000       Uiso       1.00
       H31          H  0.5188507  0.4545113  0.5053474    0.00000       Uiso       1.00
       H32          H  0.5768609  0.4827092  0.5618378    0.00000       Uiso       1.00
       H33          H  0.5762568  0.4851397  0.4983982    0.00000       Uiso       1.00
       C68          C  0.4683195  0.4686058  0.4195927    0.00000       Uiso       1.00
       C69          C  0.4919744  0.4562094  0.4325811    0.00000       Uiso       1.00
       C70          C  0.5022845  0.4663942  0.4580404    0.00000       Uiso       1.00
       C71          C  0.4552862  0.4914860  0.4329771    0.00000       Uiso       1.00
       C72          C  0.4655933  0.5016507  0.4584293    0.00000       Uiso       1.00
       C73          C  0.4896824  0.4897698  0.4714865    0.00000       Uiso       1.00
       H34          H  0.5319861  0.4946578  0.4811517    0.00000       Uiso       1.00
       H35          H  0.4369972  0.5016091  0.4237533    0.00000       Uiso       1.00
       H36          H  0.5022683  0.4381712  0.4231395    0.00000       Uiso       1.00
       Br9         Br  0.4473775  0.5336536  0.5066269    0.00000       Uiso       1.00
      Br10         Br  0.5255949  0.4933627  0.5526169    0.00000       Uiso       1.00
      Br11         Br  0.5336561  0.4473895  0.4744087    0.00000       Uiso       1.00
      Br12         Br  0.4933813  0.5255903  0.4663518    0.00000       Uiso       1.00
       C74          C  0.8685320  0.4029175  0.2625516    0.00000       Uiso       1.00
       C75          C  0.8703291  0.4263763  0.2752606    0.00000       Uiso       1.00
       C76          C  0.8741710  0.4371437  0.3005649    0.00000       Uiso       1.00
       C77          C  0.8703291  0.3903696  0.2752606    0.00000       Uiso       1.00
       C78          C  0.8742771  0.4009787  0.3005637    0.00000       Uiso       1.00
       C79          C  0.8763265  0.4245508  0.3136720    0.00000       Uiso       1.00
       H37          H  0.8025944  0.6901918  0.5446420    0.00000       Uiso       1.00
       H38          H  0.8688430  0.3712460  0.2651702    0.00000       Uiso       1.00
       H39          H  0.8688429  0.4368966  0.2651702    0.00000       Uiso       1.00
       C80          C  0.8147010  0.7374564  0.5970904    0.00000       Uiso       1.00
       C81          C  0.8021545  0.7247480  0.5736321    0.00000       Uiso       1.00
       C82          C  0.8127652  0.6994442  0.5628874    0.00000       Uiso       1.00
       C83          C  0.8381597  0.7247465  0.6096373    0.00000       Uiso       1.00
       C84          C  0.8489287  0.6994417  0.5989435    0.00000       Uiso       1.00
       C85          C  0.8363374  0.6863351  0.5754006    0.00000       Uiso       1.00
       H40          H  0.1019886  0.4553569  0.5363500    0.00000       Uiso       1.00
       H41          H  0.8486788  0.7348365  0.6287606    0.00000       Uiso       1.00
       H42          H  0.7830309  0.7348391  0.5631126    0.00000       Uiso       1.00
       C86          C  0.8147011  0.4567213  0.5970903    0.00000       Uiso       1.00
       C87          C  0.8381599  0.4585184  0.6096372    0.00000       Uiso       1.00
       C88          C  0.8489050  0.4624685  0.5990278    0.00000       Uiso       1.00
       C89          C  0.8021547  0.4585198  0.5736320    0.00000       Uiso       1.00
       C90          C  0.8128495  0.4623623  0.5628636    0.00000       Uiso       1.00
       C91          C  0.8363925  0.4645185  0.5754558    0.00000       Uiso       1.00
       H43          H  0.8754550  0.3908070  0.3098165    0.00000       Uiso       1.00
       H44          H  0.7830310  0.4570337  0.5631125    0.00000       Uiso       1.00
       H45          H  0.8486789  0.4570310  0.6287605    0.00000       Uiso       1.00
       C92          C  0.1492554  0.4029061  0.5432752    0.00000       Uiso       1.00
       C93          C  0.1365459  0.3903588  0.5414777    0.00000       Uiso       1.00
       C94          C  0.1112408  0.4010537  0.5376361    0.00000       Uiso       1.00
       C95          C  0.1365460  0.4263655  0.5414777    0.00000       Uiso       1.00
       C96          C  0.1112420  0.4371108  0.5375288    0.00000       Uiso       1.00
       C97          C  0.0981335  0.4245975  0.5354799    0.00000       Uiso       1.00
       H46          H  0.8671505  0.4636475  0.6091988    0.00000       Uiso       1.00
       C98          C  0.9117972  0.5000001  0.5000027    0.00000       Uiso       1.00
       H47          H  0.1466366  0.4368853  0.5429642    0.00000       Uiso       1.00
       H48          H  0.1466366  0.3712347  0.5429642    0.00000       Uiso       1.00
      Br13         Br  0.8772618  0.4689272  0.3171723    0.00000       Uiso       1.00
      Br14         Br  0.7945850  0.4654527  0.5310796    0.00000       Uiso       1.00
      Br15         Br  0.0946325  0.3827880  0.5345472    0.00000       Uiso       1.00
      Br16         Br  0.8807124  0.6828327  0.6172100    0.00000       Uiso       1.00
       C99          C  0.8808622  0.4357863  0.3407968    0.00000       Uiso       1.00
      C100          C  0.8693385  0.4608791  0.3515646    0.00000       Uiso       1.00
      C101          C  0.8736723  0.4713542  0.3769369    0.00000       Uiso       1.00
      C102          C  0.8968520  0.4215119  0.3562362    0.00000       Uiso       1.00
      C103          C  0.9012060  0.4319819  0.3816031    0.00000       Uiso       1.00
      C104          C  0.8896882  0.4570868  0.3923992    0.00000       Uiso       1.00
       H49          H  0.8322652  0.6071322  0.5298642    0.00000       Uiso       1.00
       H50          H  0.9064277  0.4022623  0.3487472    0.00000       Uiso       1.00
       H51          H  0.8565888  0.4723801  0.3402717    0.00000       Uiso       1.00
      C105          C  0.8475748  0.6592099  0.5640486    0.00000       Uiso       1.00
      C106          C  0.8333025  0.6437697  0.5503281    0.00000       Uiso       1.00
      C107          C  0.8437738  0.6184023  0.5397875    0.00000       Uiso       1.00
      C108          C  0.8726675  0.6484423  0.5668485    0.00000       Uiso       1.00
      C109          C  0.8831438  0.6230692  0.5562869    0.00000       Uiso       1.00
      C110          C  0.8688787  0.6076065  0.5425771    0.00000       Uiso       1.00
       H52          H  0.0189277  0.4701381  0.4977420    0.00000       Uiso       1.00
       H53          H  0.8841668  0.6597357  0.5768906    0.00000       Uiso       1.00
       H54          H  0.8140534  0.6512590  0.5481459    0.00000       Uiso       1.00
      C111          C  0.8477456  0.4690553  0.5642198    0.00000       Uiso       1.00
      C112          C  0.8614590  0.4850538  0.5784908    0.00000       Uiso       1.00
      C113          C  0.8720015  0.4894083  0.5680194    0.00000       Uiso       1.00
      C114          C  0.8449554  0.4575231  0.5391301    0.00000       Uiso       1.00
      C115          C  0.8555200  0.4618562  0.5286543    0.00000       Uiso       1.00
      C116          C  0.8692228  0.4778810  0.5429184    0.00000       Uiso       1.00
       H55          H  0.9140571  0.4204716  0.3928729    0.00000       Uiso       1.00
       H56          H  0.8349199  0.4447666  0.5276328    0.00000       Uiso       1.00
       H57          H  0.8636356  0.4946351  0.5977378    0.00000       Uiso       1.00
      C117          C  0.0710080  0.4359511  0.5309440    0.00000       Uiso       1.00
      C118          C  0.0602406  0.4331576  0.5424748    0.00000       Uiso       1.00
      C119          C  0.0348680  0.4437226  0.5381432    0.00000       Uiso       1.00
      C120          C  0.0555679  0.4496689  0.5149484    0.00000       Uiso       1.00
      C121          C  0.0302004  0.4602122  0.5105957    0.00000       Uiso       1.00
      C122          C  0.0194049  0.4574300  0.5221212    0.00000       Uiso       1.00
       H58          H  0.8819224  0.5022657  0.5795243    0.00000       Uiso       1.00
       H59          H  0.0630567  0.4518489  0.5053686    0.00000       Uiso       1.00
       H60          H  0.0715346  0.4231188  0.5552294    0.00000       Uiso       1.00
      Br17         Br  0.8568645  0.5053626  0.3901356    0.00000       Uiso       1.00
      Br18         Br  0.8515370  0.4450331  0.4946517    0.00000       Uiso       1.00
      Br19         Br  0.0216737  0.4397323  0.5549645    0.00000       Uiso       1.00
      Br20         Br  0.9171519  0.6098669  0.5602858    0.00000       Uiso       1.00
      C123          C  0.8944748  0.4683230  0.4195941    0.00000       Uiso       1.00
      C124          C  0.8962071  0.4919768  0.4325841    0.00000       Uiso       1.00
      C125          C  0.9011665  0.5022863  0.4580428    0.00000       Uiso       1.00
      C126          C  0.8980033  0.4552924  0.4329764    0.00000       Uiso       1.00
      C127          C  0.9029778  0.4655988  0.4584279    0.00000       Uiso       1.00
      C128          C  0.9038307  0.4896857  0.4714867    0.00000       Uiso       1.00
       H61          H  0.8663086  0.5319823  0.4811565    0.00000       Uiso       1.00
       H62          H  0.8969421  0.4370052  0.4237497    0.00000       Uiso       1.00
       H63          H  0.8945191  0.5022697  0.4231466    0.00000       Uiso       1.00
      C129          C  0.8801172  0.5804111  0.5314069    0.00000       Uiso       1.00
      C130          C  0.8670875  0.5670298  0.5085246    0.00000       Uiso       1.00
      C131          C  0.8773941  0.5415768  0.4983554    0.00000       Uiso       1.00
      C132          C  0.9037710  0.5674202  0.5438028    0.00000       Uiso       1.00
      C133          C  0.9140804  0.5419604  0.5336142    0.00000       Uiso       1.00
      C134          C  0.9014806  0.5285167  0.5102362    0.00000       Uiso       1.00
       H64          H  0.9437768  0.5188468  0.5053320    0.00000       Uiso       1.00
       H65          H  0.9140623  0.5768566  0.5618451    0.00000       Uiso       1.00
       H66          H  0.8487997  0.5762605  0.4984066    0.00000       Uiso       1.00
      C135          C  0.8803949  0.4826691  0.5316827    0.00000       Uiso       1.00
      C136          C  0.9032770  0.4861998  0.5447131    0.00000       Uiso       1.00
      C137          C  0.9134455  0.4911776  0.5344064    0.00000       Uiso       1.00
      C138          C  0.8679990  0.4844029  0.5080300    0.00000       Uiso       1.00
      C139          C  0.8781871  0.4893642  0.4977193    0.00000       Uiso       1.00
      C140          C  0.9015651  0.4920303  0.5103192    0.00000       Uiso       1.00
       H67          H  0.9064530  0.4545128  0.4680203    0.00000       Uiso       1.00
       H68          H  0.8499591  0.4827118  0.4977391    0.00000       Uiso       1.00
       H69          H  0.9133986  0.4851371  0.5629998    0.00000       Uiso       1.00
      C141          C  0.9922092  0.4686019  0.5173329    0.00000       Uiso       1.00
      C142          C  0.9792203  0.4562059  0.5156034    0.00000       Uiso       1.00
      C143          C  0.9537602  0.4663921  0.5106404    0.00000       Uiso       1.00
      C144          C  0.9788243  0.4914826  0.5137959    0.00000       Uiso       1.00
      C145          C  0.9533713  0.5016487  0.5088168    0.00000       Uiso       1.00
      C146          C  0.9403136  0.4897684  0.5079685    0.00000       Uiso       1.00
       H70          H  0.9306465  0.4946552  0.5454937    0.00000       Uiso       1.00
       H71          H  0.9880485  0.5016053  0.5148535    0.00000       Uiso       1.00
       H72          H  0.9886622  0.4381674  0.5173003    0.00000       Uiso       1.00
      Br21         Br  0.9051732  0.5336549  0.4744096    0.00000       Uiso       1.00
      Br22         Br  0.8591816  0.4933662  0.4663484    0.00000       Uiso       1.00
      Br23         Br  0.9373914  0.4473881  0.5066398    0.00000       Uiso       1.00
      Br24         Br  0.9454467  0.5255868  0.5526204    0.00000       Uiso       1.00
      C147          C  0.1492370  0.4028877  0.0088721    0.00000       Uiso       1.00
      C148          C  0.1365270  0.4263464  0.0214190    0.00000       Uiso       1.00
      C149          C  0.1112221  0.4371152  0.0107254    0.00000       Uiso       1.00
      C150          C  0.1365279  0.3903407  0.9854134    0.00000       Uiso       1.00
      C151          C  0.1112241  0.4009513  0.9746688    0.00000       Uiso       1.00
      C152          C  0.0981149  0.4245234  0.9871821    0.00000       Uiso       1.00
       H73          H  0.8671372  0.6901754  0.9481319    0.00000       Uiso       1.00
       H74          H  0.1466191  0.3712171  0.9748939    0.00000       Uiso       1.00
       H75          H  0.1466170  0.4368655  0.0405423    0.00000       Uiso       1.00
      C153          C  0.8146863  0.7374419  0.9550566    0.00000       Uiso       1.00
      C154          C  0.8381456  0.7247325  0.9532591    0.00000       Uiso       1.00
      C155          C  0.8488909  0.6994285  0.9493104    0.00000       Uiso       1.00
      C156          C  0.8021390  0.7247325  0.9532591    0.00000       Uiso       1.00
      C157          C  0.8128333  0.6994274  0.9494168    0.00000       Uiso       1.00
      C158          C  0.8363773  0.6863200  0.9472609    0.00000       Uiso       1.00
       H76          H  0.8754271  0.4553377  0.0209804    0.00000       Uiso       1.00
       H77          H  0.7830148  0.7348232  0.9547456    0.00000       Uiso       1.00
       H78          H  0.8486655  0.7348232  0.9547456    0.00000       Uiso       1.00
      C159          C  0.8146979  0.4567181  0.6743331    0.00000       Uiso       1.00
      C160          C  0.8021500  0.4585152  0.6870421    0.00000       Uiso       1.00
      C161          C  0.8127588  0.4624639  0.7123454    0.00000       Uiso       1.00
      C162          C  0.8381566  0.4585152  0.6870421    0.00000       Uiso       1.00
      C163          C  0.8489244  0.4623562  0.7123463    0.00000       Uiso       1.00
      C164          C  0.8363312  0.4645123  0.7254532    0.00000       Uiso       1.00
       H79          H  0.1019717  0.3907807  0.9564233    0.00000       Uiso       1.00
       H80          H  0.8486770  0.4570290  0.6769518    0.00000       Uiso       1.00
       H81          H  0.7830263  0.4570290  0.6769518    0.00000       Uiso       1.00
      C165          C  0.8685020  0.4028877  0.0088721    0.00000       Uiso       1.00
      C166          C  0.8703001  0.3903408  0.9854134    0.00000       Uiso       1.00
      C167          C  0.8741423  0.4010359  0.9746450    0.00000       Uiso       1.00
      C168          C  0.8702992  0.4263465  0.0214189    0.00000       Uiso       1.00
      C169          C  0.8742486  0.4370920  0.0108094    0.00000       Uiso       1.00
      C170          C  0.8762980  0.4245792  0.9872370    0.00000       Uiso       1.00
       H82          H  0.8025869  0.4636429  0.7215987    0.00000       Uiso       1.00
      C171          C  0.9117798  0.4999834  0.9117821    0.00000       Uiso       1.00
       H83          H  0.8688118  0.4368656  0.0405422    0.00000       Uiso       1.00
       H84          H  0.8688139  0.3712171  0.9748939    0.00000       Uiso       1.00
      Br25         Br  0.0946132  0.4688988  0.0289922    0.00000       Uiso       1.00
      Br26         Br  0.8807090  0.4654446  0.7289541    0.00000       Uiso       1.00
      Br27         Br  0.8772326  0.3827714  0.9428610    0.00000       Uiso       1.00
      Br28         Br  0.7945662  0.6828193  0.9463258    0.00000       Uiso       1.00
      C172          C  0.0709894  0.4357605  0.9758301    0.00000       Uiso       1.00
      C173          C  0.0602210  0.4608536  0.9786316    0.00000       Uiso       1.00
      C174          C  0.0348481  0.4713302  0.9680697    0.00000       Uiso       1.00
      C175          C  0.0555498  0.4214872  0.9621071    0.00000       Uiso       1.00
      C176          C  0.0301824  0.4319587  0.9515657    0.00000       Uiso       1.00
      C177          C  0.0193858  0.4570640  0.9543571    0.00000       Uiso       1.00
       H85          H  0.8819171  0.6071168  0.9095219    0.00000       Uiso       1.00
       H86          H  0.0630393  0.4022374  0.9599221    0.00000       Uiso       1.00
       H87          H  0.0715140  0.4723537  0.9886749    0.00000       Uiso       1.00
      C178          C  0.8477300  0.6591945  0.9427249    0.00000       Uiso       1.00
      C179          C  0.8614516  0.6437544  0.9267328    0.00000       Uiso       1.00
      C180          C  0.8719929  0.6183867  0.9223772    0.00000       Uiso       1.00
      C181          C  0.8449295  0.6484265  0.9542497    0.00000       Uiso       1.00
      C182          C  0.8554918  0.6230531  0.9499143    0.00000       Uiso       1.00
      C183          C  0.8692027  0.6075906  0.9338962    0.00000       Uiso       1.00
       H88          H  0.9140373  0.4701180  0.9913080    0.00000       Uiso       1.00
       H89          H  0.8348864  0.6597199  0.9670002    0.00000       Uiso       1.00
       H90          H  0.8636343  0.6512440  0.9171556    0.00000       Uiso       1.00
      C184          C  0.8475665  0.4690477  0.7525776    0.00000       Uiso       1.00
      C185          C  0.8332943  0.4850461  0.7680185    0.00000       Uiso       1.00
      C186          C  0.8437651  0.4893991  0.7933853    0.00000       Uiso       1.00
      C187          C  0.8726568  0.4575140  0.7633435    0.00000       Uiso       1.00
      C188          C  0.8831320  0.4618455  0.7887154    0.00000       Uiso       1.00
      C189          C  0.8688667  0.4778703  0.8041788    0.00000       Uiso       1.00
       H91          H  0.0189126  0.4204493  0.9416376    0.00000       Uiso       1.00
       H92          H  0.8841550  0.4447574  0.7520487    0.00000       Uiso       1.00
       H93          H  0.8140469  0.4946285  0.7605305    0.00000       Uiso       1.00
      C190          C  0.8808346  0.4359329  0.9760013    0.00000       Uiso       1.00
      C191          C  0.8693043  0.4331410  0.9509111    0.00000       Uiso       1.00
      C192          C  0.8736365  0.4437063  0.9404354    0.00000       Uiso       1.00
      C193          C  0.8968302  0.4496495  0.9902732    0.00000       Uiso       1.00
      C194          C  0.9011835  0.4601931  0.9798020    0.00000       Uiso       1.00
      C195          C  0.8896586  0.4574124  0.9547004    0.00000       Uiso       1.00
       H94          H  0.8322594  0.5022565  0.8046588    0.00000       Uiso       1.00
       H95          H  0.9064103  0.4518289  0.0095213    0.00000       Uiso       1.00
       H96          H  0.8565497  0.4231032  0.9394127    0.00000       Uiso       1.00
      Br29         Br  0.0216487  0.5053389  0.9720719    0.00000       Uiso       1.00
      Br30         Br  0.9171355  0.4450206  0.8019102    0.00000       Uiso       1.00
      Br31         Br  0.8568160  0.4397181  0.9064316    0.00000       Uiso       1.00
      Br32         Br  0.8514919  0.6098504  0.9667207    0.00000       Uiso       1.00
      C196          C  0.9921903  0.4683017  0.9431865    0.00000       Uiso       1.00
      C197          C  0.9791993  0.4919555  0.9555827    0.00000       Uiso       1.00
      C198          C  0.9537400  0.5022665  0.9453943    0.00000       Uiso       1.00
      C199          C  0.9788084  0.4552726  0.9203035    0.00000       Uiso       1.00
      C200          C  0.9533563  0.4655805  0.9101345    0.00000       Uiso       1.00
      C201          C  0.9402965  0.4896674  0.9220155    0.00000       Uiso       1.00
       H97          H  0.9306265  0.5319645  0.9171208    0.00000       Uiso       1.00
       H98          H  0.9880359  0.4369854  0.9101819    0.00000       Uiso       1.00
       H99          H  0.9886364  0.5022473  0.9736239    0.00000       Uiso       1.00
      C202          C  0.8803735  0.5803950  0.9291094    0.00000       Uiso       1.00
      C203          C  0.9032569  0.5670128  0.9255798    0.00000       Uiso       1.00
      C204          C  0.9134268  0.5415596  0.9206024    0.00000       Uiso       1.00
      C205          C  0.8679773  0.5674046  0.9273770    0.00000       Uiso       1.00
      C206          C  0.8781665  0.5419446  0.9224150    0.00000       Uiso       1.00
      C207          C  0.9015455  0.5285000  0.9197485    0.00000       Uiso       1.00
      H100          H  0.9064484  0.5188284  0.9572773    0.00000       Uiso       1.00
      H101          H  0.8499342  0.5768417  0.9290631    0.00000       Uiso       1.00
      H102          H  0.9133753  0.5762431  0.9266403    0.00000       Uiso       1.00
      C208          C  0.8801017  0.4826570  0.8313733    0.00000       Uiso       1.00
      C209          C  0.8670702  0.4861876  0.8447556    0.00000       Uiso       1.00
      C210          C  0.8773764  0.4911639  0.8702073    0.00000       Uiso       1.00
      C211          C  0.9037548  0.4843892  0.8443624    0.00000       Uiso       1.00
      C212          C  0.9140649  0.4893491  0.8698210    0.00000       Uiso       1.00
      C213          C  0.9014640  0.4920152  0.8832653    0.00000       Uiso       1.00
      H103          H  0.9437642  0.4544955  0.8929324    0.00000       Uiso       1.00
      H104          H  0.9140466  0.4826981  0.8349222    0.00000       Uiso       1.00
      H105          H  0.8487831  0.4851260  0.8355289    0.00000       Uiso       1.00
      C214          C  0.8944476  0.4685845  0.9434650    0.00000       Uiso       1.00
      C215          C  0.8961781  0.4561895  0.9198105    0.00000       Uiso       1.00
      C216          C  0.9011418  0.4663759  0.9094998    0.00000       Uiso       1.00
      C217          C  0.8979841  0.4914647  0.9564971    0.00000       Uiso       1.00
      C218          C  0.9029639  0.5016308  0.9461895    0.00000       Uiso       1.00
      C219          C  0.9038132  0.4897515  0.9221008    0.00000       Uiso       1.00
      H106          H  0.8662882  0.4946416  0.8797985    0.00000       Uiso       1.00
      H107          H  0.8969258  0.5015867  0.9747858    0.00000       Uiso       1.00
      H108          H  0.8944815  0.4381514  0.9095175    0.00000       Uiso       1.00
      Br33         Br  0.9373717  0.5336349  0.9644026    0.00000       Uiso       1.00
      Br34         Br  0.9454365  0.4933491  0.8861865    0.00000       Uiso       1.00
      Br35         Br  0.9051438  0.4473731  0.8781288    0.00000       Uiso       1.00
      Br36         Br  0.8591596  0.5255719  0.9184023    0.00000       Uiso       1.00
      C220          C  0.4028866  0.8685034  0.0088722    0.00000       Uiso       1.00
      C221          C  0.4263453  0.8703006  0.0214191    0.00000       Uiso       1.00
      C222          C  0.4371141  0.8741440  0.0107255    0.00000       Uiso       1.00
      C223          C  0.3903395  0.8703015  0.9854134    0.00000       Uiso       1.00
      C224          C  0.4009501  0.8742509  0.9746689    0.00000       Uiso       1.00
      C225          C  0.4245222  0.8763004  0.9871821    0.00000       Uiso       1.00
      H109          H  0.6901742  0.8025793  0.9481321    0.00000       Uiso       1.00
      H110          H  0.3712159  0.8688153  0.9748940    0.00000       Uiso       1.00
      H111          H  0.4368644  0.8688132  0.0405423    0.00000       Uiso       1.00
      C226          C  0.7374407  0.8146877  0.9550567    0.00000       Uiso       1.00
      C227          C  0.7247313  0.8021404  0.9532592    0.00000       Uiso       1.00
      C228          C  0.6994274  0.8127508  0.9493105    0.00000       Uiso       1.00
      C229          C  0.7247313  0.8381471  0.9532592    0.00000       Uiso       1.00
      C230          C  0.6994262  0.8489158  0.9494168    0.00000       Uiso       1.00
      C231          C  0.6863188  0.8363237  0.9472611    0.00000       Uiso       1.00
      H112          H  0.4553366  0.1019704  0.0209805    0.00000       Uiso       1.00
      H113          H  0.7348220  0.8486669  0.9547457    0.00000       Uiso       1.00
      H114          H  0.7348220  0.7830163  0.9547457    0.00000       Uiso       1.00
      C232          C  0.4567170  0.8146993  0.6743332    0.00000       Uiso       1.00
      C233          C  0.4585141  0.8381580  0.6870421    0.00000       Uiso       1.00
      C234          C  0.4624627  0.8489018  0.7123455    0.00000       Uiso       1.00
      C235          C  0.4585141  0.8021514  0.6870421    0.00000       Uiso       1.00
      C236          C  0.4623551  0.8128448  0.7123464    0.00000       Uiso       1.00
      C237          C  0.4645112  0.8363878  0.7254533    0.00000       Uiso       1.00
      H115          H  0.3907795  0.8754300  0.9564233    0.00000       Uiso       1.00
      H116          H  0.4570279  0.7830277  0.6769518    0.00000       Uiso       1.00
      H117          H  0.4570279  0.8486784  0.6769518    0.00000       Uiso       1.00
      C238          C  0.4028867  0.1492379  0.0088721    0.00000       Uiso       1.00
      C239          C  0.3903396  0.1365289  0.9854134    0.00000       Uiso       1.00
      C240          C  0.4010348  0.1112240  0.9746450    0.00000       Uiso       1.00
      C241          C  0.4263454  0.1365279  0.0214190    0.00000       Uiso       1.00
      C242          C  0.4370910  0.1112242  0.0108094    0.00000       Uiso       1.00
      C243          C  0.4245780  0.0981161  0.9872371    0.00000       Uiso       1.00
      H118          H  0.4636417  0.8671473  0.7215989    0.00000       Uiso       1.00
      C244          C  0.4999822  0.9117818  0.9117821    0.00000       Uiso       1.00
      H119          H  0.4368645  0.1466179  0.0405423    0.00000       Uiso       1.00
      H120          H  0.3712160  0.1466201  0.9748939    0.00000       Uiso       1.00
      Br37         Br  0.4688977  0.8772346  0.0289923    0.00000       Uiso       1.00
      Br38         Br  0.4654435  0.7945783  0.7289542    0.00000       Uiso       1.00
      Br39         Br  0.3827702  0.0946169  0.9428610    0.00000       Uiso       1.00
      Br40         Br  0.6828181  0.8807004  0.9463260    0.00000       Uiso       1.00
      C245          C  0.4357593  0.8808377  0.9758301    0.00000       Uiso       1.00
      C246          C  0.4608524  0.8693143  0.9786317    0.00000       Uiso       1.00
      C247          C  0.4713289  0.8736496  0.9680697    0.00000       Uiso       1.00
      C248          C  0.4214860  0.8968287  0.9621071    0.00000       Uiso       1.00
      C249          C  0.4319575  0.9011841  0.9515658    0.00000       Uiso       1.00
      C250          C  0.4570628  0.8896667  0.9543572    0.00000       Uiso       1.00
      H121          H  0.6071156  0.8322511  0.9095220    0.00000       Uiso       1.00
      H122          H  0.4022362  0.9064042  0.9599221    0.00000       Uiso       1.00
      H123          H  0.4723525  0.8565637  0.9886750    0.00000       Uiso       1.00
      C251          C  0.6591933  0.8475608  0.9427249    0.00000       Uiso       1.00
      C252          C  0.6437532  0.8332885  0.9267330    0.00000       Uiso       1.00
      C253          C  0.6183855  0.8437596  0.9223773    0.00000       Uiso       1.00
      C254          C  0.6484253  0.8726531  0.9542497    0.00000       Uiso       1.00
      C255          C  0.6230519  0.8831292  0.9499144    0.00000       Uiso       1.00
      C256          C  0.6075894  0.8688641  0.9338962    0.00000       Uiso       1.00
      H124          H  0.4701169  0.0189086  0.9913080    0.00000       Uiso       1.00
      H125          H  0.6597187  0.8841524  0.9670004    0.00000       Uiso       1.00
      H126          H  0.6512428  0.8140397  0.9171557    0.00000       Uiso       1.00
      C257          C  0.4690465  0.8477393  0.7525778    0.00000       Uiso       1.00
      C258          C  0.4850450  0.8614527  0.7680186    0.00000       Uiso       1.00
      C259          C  0.4893980  0.8719936  0.7933853    0.00000       Uiso       1.00
      C260          C  0.4575128  0.8449477  0.7633435    0.00000       Uiso       1.00
      C261          C  0.4618444  0.8555108  0.7887155    0.00000       Uiso       1.00
      C262          C  0.4778692  0.8692135  0.8041790    0.00000       Uiso       1.00
      H127          H  0.4204481  0.9140361  0.9416376    0.00000       Uiso       1.00
      H128          H  0.4447563  0.8349121  0.7520487    0.00000       Uiso       1.00
      H129          H  0.4946273  0.8636304  0.7605305    0.00000       Uiso       1.00
      C263          C  0.4359318  0.0709910  0.9760013    0.00000       Uiso       1.00
      C264          C  0.4331398  0.0602250  0.9509112    0.00000       Uiso       1.00
      C265          C  0.4437051  0.0348527  0.9404355    0.00000       Uiso       1.00
      C266          C  0.4496484  0.0555495  0.9902734    0.00000       Uiso       1.00
      C267          C  0.4601920  0.0301823  0.9798021    0.00000       Uiso       1.00
      C268          C  0.4574113  0.0193883  0.9547005    0.00000       Uiso       1.00
      H130          H  0.5022554  0.8819146  0.8046589    0.00000       Uiso       1.00
      H131          H  0.4518279  0.0630377  0.0095213    0.00000       Uiso       1.00
      H132          H  0.4231021  0.0715200  0.9394128    0.00000       Uiso       1.00
      Br41         Br  0.5053377  0.8568422  0.9720720    0.00000       Uiso       1.00
      Br42         Br  0.4450194  0.8515259  0.8019102    0.00000       Uiso       1.00
      Br43         Br  0.4397169  0.0216604  0.9064316    0.00000       Uiso       1.00
      Br44         Br  0.6098492  0.9171367  0.9667208    0.00000       Uiso       1.00
      C269          C  0.4683005  0.8944548  0.9431866    0.00000       Uiso       1.00
      C270          C  0.4919543  0.8961871  0.9555827    0.00000       Uiso       1.00
      C271          C  0.5022653  0.9011480  0.9453944    0.00000       Uiso       1.00
      C272          C  0.4552713  0.8979847  0.9203036    0.00000       Uiso       1.00
      C273          C  0.4655792  0.9029607  0.9101346    0.00000       Uiso       1.00
      C274          C  0.4896661  0.9038138  0.9220155    0.00000       Uiso       1.00
      H133          H  0.5319633  0.8662922  0.9171209    0.00000       Uiso       1.00
      H134          H  0.4369842  0.8969236  0.9101819    0.00000       Uiso       1.00
      H135          H  0.5022461  0.8944981  0.9736240    0.00000       Uiso       1.00
      C275          C  0.5803938  0.8801024  0.9291095    0.00000       Uiso       1.00
      C276          C  0.5670116  0.8670719  0.9255799    0.00000       Uiso       1.00
      C277          C  0.5415584  0.8773783  0.9206025    0.00000       Uiso       1.00
      C278          C  0.5674034  0.9037567  0.9273771    0.00000       Uiso       1.00
      C279          C  0.5419433  0.9140660  0.9224150    0.00000       Uiso       1.00
      C280          C  0.5284988  0.9014653  0.9197486    0.00000       Uiso       1.00
      H136          H  0.5188272  0.9437598  0.9572774    0.00000       Uiso       1.00
      H137          H  0.5768405  0.9140487  0.9290632    0.00000       Uiso       1.00
      H138          H  0.5762419  0.8487836  0.9266404    0.00000       Uiso       1.00
      C281          C  0.4826558  0.8803840  0.8313733    0.00000       Uiso       1.00
      C282          C  0.4861864  0.9032662  0.8447557    0.00000       Uiso       1.00
      C283          C  0.4911627  0.9134332  0.8702073    0.00000       Uiso       1.00
      C284          C  0.4843881  0.8679867  0.8443625    0.00000       Uiso       1.00
      C285          C  0.4893478  0.8781733  0.8698211    0.00000       Uiso       1.00
      C286          C  0.4920140  0.9015514  0.8832653    0.00000       Uiso       1.00
      H139          H  0.4544943  0.9064371  0.8929324    0.00000       Uiso       1.00
      H140          H  0.4826969  0.8499467  0.8349223    0.00000       Uiso       1.00
      H141          H  0.4851248  0.9133889  0.8355290    0.00000       Uiso       1.00
      C287          C  0.4685833  0.9921932  0.9434651    0.00000       Uiso       1.00
      C288          C  0.4561883  0.9792052  0.9198107    0.00000       Uiso       1.00
      C289          C  0.4663747  0.9537454  0.9094999    0.00000       Uiso       1.00
      C290          C  0.4914635  0.9788076  0.9564972    0.00000       Uiso       1.00
      C291          C  0.5016297  0.9533548  0.9461896    0.00000       Uiso       1.00
      C292          C  0.4897503  0.9402981  0.9221009    0.00000       Uiso       1.00
      H142          H  0.4946404  0.9306343  0.8797986    0.00000       Uiso       1.00
      H143          H  0.5015854  0.9880311  0.9747859    0.00000       Uiso       1.00
      H144          H  0.4381502  0.9886476  0.9095176    0.00000       Uiso       1.00
      Br45         Br  0.5336337  0.9051545  0.9644026    0.00000       Uiso       1.00
      Br46         Br  0.4933479  0.8591659  0.8861866    0.00000       Uiso       1.00
      Br47         Br  0.4473718  0.9373776  0.8781289    0.00000       Uiso       1.00
      Br48         Br  0.5255707  0.9454331  0.9184024    0.00000       Uiso       1.00
      C293          C  0.4029051  0.1492564  0.5432752    0.00000       Uiso       1.00
      C294          C  0.4263644  0.1365470  0.5414777    0.00000       Uiso       1.00
      C295          C  0.4371330  0.1112418  0.5376349    0.00000       Uiso       1.00
      C296          C  0.3903577  0.1365470  0.5414777    0.00000       Uiso       1.00
      C297          C  0.4009681  0.1112430  0.5375289    0.00000       Uiso       1.00
      C298          C  0.4245408  0.0981343  0.5354790    0.00000       Uiso       1.00
      H145          H  0.6901881  0.8671524  0.6091987    0.00000       Uiso       1.00
      H146          H  0.3712336  0.1466378  0.5429643    0.00000       Uiso       1.00
      H147          H  0.4368843  0.1466378  0.5429643    0.00000       Uiso       1.00
      C299          C  0.7374554  0.8147023  0.5970905    0.00000       Uiso       1.00
      C300          C  0.7247454  0.8381611  0.6096374    0.00000       Uiso       1.00
      C301          C  0.6994416  0.8489066  0.5990276    0.00000       Uiso       1.00
      C302          C  0.7247468  0.8021559  0.5736322    0.00000       Uiso       1.00
      C303          C  0.6994420  0.8128505  0.5628641    0.00000       Uiso       1.00
      C304          C  0.6863340  0.8363939  0.5754558    0.00000       Uiso       1.00
      H148          H  0.4553650  0.8754569  0.3098169    0.00000       Uiso       1.00
      H149          H  0.7348380  0.7830322  0.5631127    0.00000       Uiso       1.00
      H150          H  0.7348353  0.8486802  0.6287607    0.00000       Uiso       1.00
      C305          C  0.4567201  0.8147025  0.5970904    0.00000       Uiso       1.00
      C306          C  0.4585187  0.8021560  0.5736321    0.00000       Uiso       1.00
      C307          C  0.4624688  0.8127663  0.5628877    0.00000       Uiso       1.00
      C308          C  0.4585173  0.8381612  0.6096373    0.00000       Uiso       1.00
      C309          C  0.4623598  0.8489304  0.5989432    0.00000       Uiso       1.00
      C310          C  0.4645173  0.8363386  0.5754007    0.00000       Uiso       1.00
      H151          H  0.3907967  0.1019899  0.5363507    0.00000       Uiso       1.00
      H152          H  0.4570298  0.8486804  0.6287606    0.00000       Uiso       1.00
      H153          H  0.4570325  0.7830324  0.5631126    0.00000       Uiso       1.00
      C311          C  0.4029166  0.8685333  0.2625518    0.00000       Uiso       1.00
      C312          C  0.3903686  0.8703305  0.2752607    0.00000       Uiso       1.00
      C313          C  0.4010623  0.8741711  0.3005651    0.00000       Uiso       1.00
      C314          C  0.4263753  0.8703305  0.2752607    0.00000       Uiso       1.00
      C315          C  0.4371194  0.8742784  0.3005639    0.00000       Uiso       1.00
      C316          C  0.4246055  0.8763269  0.3136719    0.00000       Uiso       1.00
      H154          H  0.4636489  0.8025956  0.5446426    0.00000       Uiso       1.00
      C317          C  0.4999990  0.9117979  0.5000021    0.00000       Uiso       1.00
      H155          H  0.4368956  0.8688442  0.2651704    0.00000       Uiso       1.00
      H156          H  0.3712449  0.8688442  0.2651704    0.00000       Uiso       1.00
      Br49         Br  0.4689173  0.0946338  0.5345437    0.00000       Uiso       1.00
      Br50         Br  0.4654481  0.8807150  0.6172083    0.00000       Uiso       1.00
      Br51         Br  0.3827958  0.8772595  0.3171728    0.00000       Uiso       1.00
      Br52         Br  0.6828351  0.7945846  0.5310809    0.00000       Uiso       1.00
      C318          C  0.4357776  0.0710086  0.5309424    0.00000       Uiso       1.00
      C319          C  0.4608703  0.0602399  0.5424653    0.00000       Uiso       1.00
      C320          C  0.4713466  0.0348667  0.5381305    0.00000       Uiso       1.00
      C321          C  0.4215044  0.0555691  0.5149527    0.00000       Uiso       1.00
      C322          C  0.4319756  0.0302015  0.5105978    0.00000       Uiso       1.00
      C323          C  0.4570805  0.0194045  0.5221146    0.00000       Uiso       1.00
      H157          H  0.6071290  0.8819320  0.5795298    0.00000       Uiso       1.00
      H158          H  0.4022548  0.0630589  0.5053776    0.00000       Uiso       1.00
      H159          H  0.4723703  0.0715327  0.5552148    0.00000       Uiso       1.00
      C324          C  0.6592088  0.8477468  0.5642193    0.00000       Uiso       1.00
      C325          C  0.6437675  0.8614672  0.5784917    0.00000       Uiso       1.00
      C326          C  0.6184001  0.8720087  0.5680211    0.00000       Uiso       1.00
      C327          C  0.6484423  0.8449479  0.5391276    0.00000       Uiso       1.00
      C328          C  0.6230692  0.8555103  0.5286521    0.00000       Uiso       1.00
      C329          C  0.6076054  0.8692200  0.5429173    0.00000       Uiso       1.00
      H160          H  0.4701413  0.9140631  0.3928760    0.00000       Uiso       1.00
      H161          H  0.6597367  0.8349057  0.5276283    0.00000       Uiso       1.00
      H162          H  0.6512559  0.8636488  0.5977401    0.00000       Uiso       1.00
      C330          C  0.4690543  0.8475756  0.5640485    0.00000       Uiso       1.00
      C331          C  0.4850539  0.8333046  0.5503351    0.00000       Uiso       1.00
      C332          C  0.4894083  0.8437769  0.5397936    0.00000       Uiso       1.00
      C333          C  0.4575208  0.8726662  0.5668396    0.00000       Uiso       1.00
      C334          C  0.4618539  0.8831428  0.5562759    0.00000       Uiso       1.00
      C335          C  0.4778799  0.8688788  0.5425732    0.00000       Uiso       1.00
      H163          H  0.4204663  0.0189317  0.4977467    0.00000       Uiso       1.00
      H164          H  0.4447634  0.8841636  0.5768752    0.00000       Uiso       1.00
      H165          H  0.4946360  0.8140569  0.5481578    0.00000       Uiso       1.00
      C336          C  0.4359577  0.8808619  0.3407964    0.00000       Uiso       1.00
      C337          C  0.4331643  0.8693302  0.3515629    0.00000       Uiso       1.00
      C338          C  0.4437281  0.8736609  0.3769347    0.00000       Uiso       1.00
      C339          C  0.4496742  0.8968574  0.3562366    0.00000       Uiso       1.00
      C340          C  0.4602164  0.9012093  0.3816033    0.00000       Uiso       1.00
      C341          C  0.4574342  0.8896829  0.3923978    0.00000       Uiso       1.00
      H166          H  0.5022666  0.8322719  0.5298725    0.00000       Uiso       1.00
      H167          H  0.4518542  0.9064380  0.3487484    0.00000       Uiso       1.00
      H168          H  0.4231265  0.8565755  0.3402689    0.00000       Uiso       1.00
      Br53         Br  0.5053548  0.0216668  0.5549371    0.00000       Uiso       1.00
      Br54         Br  0.4450293  0.9171467  0.5602601    0.00000       Uiso       1.00
      Br55         Br  0.4397380  0.8568384  0.3901278    0.00000       Uiso       1.00
      Br56         Br  0.6098686  0.8515126  0.4946452    0.00000       Uiso       1.00
      C342          C  0.4683179  0.9922091  0.5173271    0.00000       Uiso       1.00
      C343          C  0.4919724  0.9792186  0.5155944    0.00000       Uiso       1.00
      C344          C  0.5022830  0.9537591  0.5106341    0.00000       Uiso       1.00
      C345          C  0.4552880  0.9788264  0.5137983    0.00000       Uiso       1.00
      C346          C  0.4655957  0.9533741  0.5088229    0.00000       Uiso       1.00
      C347          C  0.4896831  0.9403148  0.5079694    0.00000       Uiso       1.00
      H169          H  0.5319785  0.9306431  0.5454897    0.00000       Uiso       1.00
      H170          H  0.4370004  0.9880534  0.5148599    0.00000       Uiso       1.00
      H171          H  0.5022647  0.9886564  0.5172826    0.00000       Uiso       1.00
      C348          C  0.5804100  0.8803911  0.5316796    0.00000       Uiso       1.00
      C349          C  0.5670272  0.9032738  0.5447097    0.00000       Uiso       1.00
      C350          C  0.5415742  0.9134439  0.5344039    0.00000       Uiso       1.00
      C351          C  0.5674205  0.8679958  0.5080262    0.00000       Uiso       1.00
      C352          C  0.5419607  0.8781852  0.4977176    0.00000       Uiso       1.00
      C353          C  0.5285155  0.9015636  0.5103179    0.00000       Uiso       1.00
      H172          H  0.5188472  0.9064697  0.4680236    0.00000       Uiso       1.00
      H173          H  0.5768581  0.8499532  0.4977346    0.00000       Uiso       1.00
      H174          H  0.5762568  0.9133915  0.5629972    0.00000       Uiso       1.00
      C354          C  0.4826680  0.8801154  0.5314020    0.00000       Uiso       1.00
      C355          C  0.4862002  0.8670853  0.5085201    0.00000       Uiso       1.00
      C356          C  0.4911780  0.8773929  0.4983525    0.00000       Uiso       1.00
      C357          C  0.4844004  0.9037685  0.5437982    0.00000       Uiso       1.00
      C358          C  0.4893616  0.9140801  0.5336110    0.00000       Uiso       1.00
      C359          C  0.4920292  0.9014806  0.5102334    0.00000       Uiso       1.00
      H175          H  0.4545102  0.9437814  0.5053474    0.00000       Uiso       1.00
      H176          H  0.4827081  0.9140591  0.5618379    0.00000       Uiso       1.00
      H177          H  0.4851386  0.8487983  0.4983983    0.00000       Uiso       1.00
      C360          C  0.4686047  0.8944703  0.4195928    0.00000       Uiso       1.00
      C361          C  0.4562082  0.8961993  0.4325812    0.00000       Uiso       1.00
      C362          C  0.4663931  0.9011615  0.4580404    0.00000       Uiso       1.00
      C363          C  0.4914849  0.8980069  0.4329773    0.00000       Uiso       1.00
      C364          C  0.5016496  0.9029852  0.4584295    0.00000       Uiso       1.00
      C365          C  0.4897687  0.9038330  0.4714866    0.00000       Uiso       1.00
      H178          H  0.4946567  0.8663058  0.4811518    0.00000       Uiso       1.00
      H179          H  0.5016080  0.8969496  0.4237534    0.00000       Uiso       1.00
      H180          H  0.4381701  0.8945028  0.4231395    0.00000       Uiso       1.00
      Br57         Br  0.5336525  0.9373918  0.5066270    0.00000       Uiso       1.00
      Br58         Br  0.4933616  0.9454514  0.5526170    0.00000       Uiso       1.00
      Br59         Br  0.4473884  0.9051616  0.4744087    0.00000       Uiso       1.00
      Br60         Br  0.5255892  0.8591794  0.4663519    0.00000       Uiso       1.00
      C366          C  0.8685020  0.1492380  0.0088721    0.00000       Uiso       1.00
      C367          C  0.8702991  0.1365280  0.0214190    0.00000       Uiso       1.00
      C368          C  0.8741425  0.1112230  0.0107255    0.00000       Uiso       1.00
      C369          C  0.8703000  0.1365290  0.9854134    0.00000       Uiso       1.00
      C370          C  0.8742494  0.1112252  0.9746689    0.00000       Uiso       1.00
      C371          C  0.8762988  0.0981160  0.9871821    0.00000       Uiso       1.00
      H181          H  0.8025777  0.8671386  0.9481320    0.00000       Uiso       1.00
      H182          H  0.8688138  0.1466202  0.9748940    0.00000       Uiso       1.00
      H183          H  0.8688117  0.1466180  0.0405423    0.00000       Uiso       1.00
      C372          C  0.8146861  0.8146877  0.9550567    0.00000       Uiso       1.00
      C373          C  0.8021388  0.8381471  0.9532592    0.00000       Uiso       1.00
      C374          C  0.8127493  0.8488923  0.9493105    0.00000       Uiso       1.00
      C375          C  0.8381455  0.8021404  0.9532592    0.00000       Uiso       1.00
      C376          C  0.8489142  0.8128347  0.9494168    0.00000       Uiso       1.00
      C377          C  0.8363221  0.8363787  0.9472611    0.00000       Uiso       1.00
      H184          H  0.1019692  0.8754284  0.0209805    0.00000       Uiso       1.00
      H185          H  0.8486654  0.7830163  0.9547457    0.00000       Uiso       1.00
      H186          H  0.7830147  0.8486669  0.9547457    0.00000       Uiso       1.00
      C378          C  0.8146978  0.8146993  0.6743332    0.00000       Uiso       1.00
      C379          C  0.8381565  0.8021514  0.6870421    0.00000       Uiso       1.00
      C380          C  0.8489003  0.8127602  0.7123455    0.00000       Uiso       1.00
      C381          C  0.8021498  0.8381580  0.6870421    0.00000       Uiso       1.00
      C382          C  0.8128432  0.8489258  0.7123464    0.00000       Uiso       1.00
      C383          C  0.8363863  0.8363326  0.7254533    0.00000       Uiso       1.00
      H187          H  0.8754284  0.1019728  0.9564233    0.00000       Uiso       1.00
      H188          H  0.7830262  0.8486784  0.6769518    0.00000       Uiso       1.00
      H189          H  0.8486769  0.7830277  0.6769518    0.00000       Uiso       1.00
      C384          C  0.1492368  0.8685034  0.0088721    0.00000       Uiso       1.00
      C385          C  0.1365276  0.8703015  0.9854134    0.00000       Uiso       1.00
      C386          C  0.1112227  0.8741437  0.9746450    0.00000       Uiso       1.00
      C387          C  0.1365268  0.8703005  0.0214190    0.00000       Uiso       1.00
      C388          C  0.1112231  0.8742500  0.0108094    0.00000       Uiso       1.00
      C389          C  0.0981149  0.8762994  0.9872371    0.00000       Uiso       1.00
      H190          H  0.8671458  0.8025883  0.7215989    0.00000       Uiso       1.00
      C390          C  0.9117803  0.9117811  0.9117821    0.00000       Uiso       1.00
      H191          H  0.1466168  0.8688132  0.0405423    0.00000       Uiso       1.00
      H192          H  0.1466189  0.8688153  0.9748940    0.00000       Uiso       1.00
      Br61         Br  0.8772331  0.0946142  0.0289922    0.00000       Uiso       1.00
      Br62         Br  0.7945767  0.8807104  0.7289542    0.00000       Uiso       1.00
      Br63         Br  0.0946156  0.8772340  0.9428610    0.00000       Uiso       1.00
      Br64         Br  0.8806988  0.7945677  0.9463260    0.00000       Uiso       1.00
      C391          C  0.8808362  0.0709905  0.9758301    0.00000       Uiso       1.00
      C392          C  0.8693127  0.0602221  0.9786317    0.00000       Uiso       1.00
      C393          C  0.8736480  0.0348492  0.9680697    0.00000       Uiso       1.00
      C394          C  0.8968271  0.0555509  0.9621071    0.00000       Uiso       1.00
      C395          C  0.9011826  0.0301835  0.9515658    0.00000       Uiso       1.00
      C396          C  0.8896651  0.0193869  0.9543572    0.00000       Uiso       1.00
      H193          H  0.8322495  0.8819185  0.9095220    0.00000       Uiso       1.00
      H194          H  0.9064026  0.0630404  0.9599221    0.00000       Uiso       1.00
      H195          H  0.8565622  0.0715150  0.9886749    0.00000       Uiso       1.00
      C397          C  0.8475592  0.8477314  0.9427249    0.00000       Uiso       1.00
      C398          C  0.8332869  0.8614531  0.9267330    0.00000       Uiso       1.00
      C399          C  0.8437580  0.8719943  0.9223773    0.00000       Uiso       1.00
      C400          C  0.8726515  0.8449309  0.9542499    0.00000       Uiso       1.00
      C401          C  0.8831276  0.8554932  0.9499144    0.00000       Uiso       1.00
      C402          C  0.8688625  0.8692041  0.9338962    0.00000       Uiso       1.00
      H196          H  0.0189074  0.9140388  0.9913081    0.00000       Uiso       1.00
      H197          H  0.8841507  0.8348879  0.9670004    0.00000       Uiso       1.00
      H198          H  0.8140381  0.8636357  0.9171557    0.00000       Uiso       1.00
      C403          C  0.8477377  0.8475679  0.7525778    0.00000       Uiso       1.00
      C404          C  0.8614511  0.8332958  0.7680186    0.00000       Uiso       1.00
      C405          C  0.8719921  0.8437665  0.7933854    0.00000       Uiso       1.00
      C406          C  0.8449461  0.8726582  0.7633435    0.00000       Uiso       1.00
      C407          C  0.8555092  0.8831334  0.7887155    0.00000       Uiso       1.00
      C408          C  0.8692119  0.8688681  0.8041790    0.00000       Uiso       1.00
      H199          H  0.9140345  0.0189136  0.9416376    0.00000       Uiso       1.00
      H200          H  0.8349106  0.8841564  0.7520487    0.00000       Uiso       1.00
      H201          H  0.8636288  0.8140482  0.7605305    0.00000       Uiso       1.00
      C409          C  0.0709897  0.8808360  0.9760013    0.00000       Uiso       1.00
      C410          C  0.0602238  0.8693058  0.9509112    0.00000       Uiso       1.00
      C411          C  0.0348514  0.8736380  0.9404355    0.00000       Uiso       1.00
      C412          C  0.0555483  0.8968316  0.9902734    0.00000       Uiso       1.00
      C413          C  0.0301810  0.9011850  0.9798021    0.00000       Uiso       1.00
      C414          C  0.0193871  0.8896600  0.9547005    0.00000       Uiso       1.00
      H202          H  0.8819130  0.8322607  0.8046589    0.00000       Uiso       1.00
      H203          H  0.0630366  0.9064116  0.0095213    0.00000       Uiso       1.00
      H204          H  0.0715187  0.8565511  0.9394128    0.00000       Uiso       1.00
      Br65         Br  0.8568406  0.0216498  0.9720719    0.00000       Uiso       1.00
      Br66         Br  0.8515244  0.9171369  0.8019102    0.00000       Uiso       1.00
      Br67         Br  0.0216592  0.8568174  0.9064316    0.00000       Uiso       1.00
      Br68         Br  0.9171352  0.8514934  0.9667208    0.00000       Uiso       1.00
      C415          C  0.8944532  0.9921917  0.9431866    0.00000       Uiso       1.00
      C416          C  0.8961855  0.9792007  0.9555827    0.00000       Uiso       1.00
      C417          C  0.9011465  0.9537414  0.9453944    0.00000       Uiso       1.00
      C418          C  0.8979831  0.9788099  0.9203036    0.00000       Uiso       1.00
      C419          C  0.9029592  0.9533578  0.9101346    0.00000       Uiso       1.00
      C420          C  0.9038122  0.9402978  0.9220155    0.00000       Uiso       1.00
      H205          H  0.8662906  0.9306279  0.9171209    0.00000       Uiso       1.00
      H206          H  0.8969220  0.9880373  0.9101819    0.00000       Uiso       1.00
      H207          H  0.8944965  0.9886379  0.9736240    0.00000       Uiso       1.00
      C421          C  0.8801007  0.8803750  0.9291095    0.00000       Uiso       1.00
      C422          C  0.8670703  0.9032583  0.9255799    0.00000       Uiso       1.00
      C423          C  0.8773767  0.9134282  0.9206025    0.00000       Uiso       1.00
      C424          C  0.9037551  0.8679787  0.9273771    0.00000       Uiso       1.00
      C425          C  0.9140644  0.8781679  0.9224150    0.00000       Uiso       1.00
      C426          C  0.9014637  0.9015470  0.9197486    0.00000       Uiso       1.00
      H208          H  0.9437582  0.9064497  0.9572775    0.00000       Uiso       1.00
      H209          H  0.9140472  0.8499356  0.9290632    0.00000       Uiso       1.00
      H210          H  0.8487821  0.9133767  0.9266404    0.00000       Uiso       1.00
      C427          C  0.8803824  0.8801032  0.8313733    0.00000       Uiso       1.00
      C428          C  0.9032646  0.8670716  0.8447557    0.00000       Uiso       1.00
      C429          C  0.9134316  0.8773778  0.8702073    0.00000       Uiso       1.00
      C430          C  0.8679851  0.9037563  0.8443625    0.00000       Uiso       1.00
      C431          C  0.8781718  0.9140663  0.8698211    0.00000       Uiso       1.00
      C432          C  0.9015498  0.9014654  0.8832653    0.00000       Uiso       1.00
      H211          H  0.9064355  0.9437656  0.8929324    0.00000       Uiso       1.00
      H212          H  0.8499451  0.9140480  0.8349223    0.00000       Uiso       1.00
      H213          H  0.9133874  0.8487845  0.8355290    0.00000       Uiso       1.00
      C433          C  0.9921916  0.8944490  0.9434651    0.00000       Uiso       1.00
      C434          C  0.9792036  0.8961795  0.9198107    0.00000       Uiso       1.00
      C435          C  0.9537438  0.9011431  0.9094999    0.00000       Uiso       1.00
      C436          C  0.9788061  0.8979855  0.9564973    0.00000       Uiso       1.00
      C437          C  0.9533532  0.9029653  0.9461896    0.00000       Uiso       1.00
      C438          C  0.9402966  0.9038146  0.9221009    0.00000       Uiso       1.00
      H214          H  0.9306327  0.8662896  0.8797986    0.00000       Uiso       1.00
      H215          H  0.9880296  0.8969272  0.9747860    0.00000       Uiso       1.00
      H216          H  0.9886460  0.8944830  0.9095176    0.00000       Uiso       1.00
      Br69         Br  0.9051530  0.9373732  0.9644027    0.00000       Uiso       1.00
      Br70         Br  0.8591644  0.9454378  0.8861866    0.00000       Uiso       1.00
      Br71         Br  0.9373761  0.9051452  0.8781289    0.00000       Uiso       1.00
      Br72         Br  0.9454316  0.8591610  0.9184024    0.00000       Uiso       1.00
        O1          O  0.8147003  0.4552298  0.6349675    0.00000       Uiso       1.00
        B1          B  0.8015788  0.4555456  0.6102121    0.00000       Uiso       1.00
        B2          B  0.7648737  0.4555455  0.6102121    0.00000       Uiso       1.00
        O2          O  0.7768229  0.4552314  0.5970901    0.00000       Uiso       1.00
        O3          O  0.7768209  0.4552297  0.6349674    0.00000       Uiso       1.00
        B3          B  0.8015769  0.4555441  0.6469154    0.00000       Uiso       1.00
        O4          O  0.4552286  0.8147017  0.6349668    0.00000       Uiso       1.00
        B4          B  0.4555430  0.8015787  0.6469150    0.00000       Uiso       1.00
        B5          B  0.4555444  0.7648750  0.6102113    0.00000       Uiso       1.00
        O5          O  0.4552287  0.7768227  0.6349669    0.00000       Uiso       1.00
        O6          O  0.4552301  0.7768239  0.5970891    0.00000       Uiso       1.00
        B6          B  0.4555444  0.8015797  0.6102113    0.00000       Uiso       1.00
      C439          C  0.3831215  0.3629330  0.5477523    0.00000       Uiso       1.00
      C440          C  0.3842238  0.3421003  0.5490077    0.00000       Uiso       1.00
      C441          C  0.4059915  0.3221053  0.5514475    0.00000       Uiso       1.00
      C442          C  0.4064269  0.3009180  0.5514366    0.00000       Uiso       1.00
      C443          C  0.3847463  0.2986957  0.5475950    0.00000       Uiso       1.00
      C444          C  0.3629305  0.3189394  0.5448024    0.00000       Uiso       1.00
      C445          C  0.3625965  0.3412836  0.5472040    0.00000       Uiso       1.00
        O7          O  0.4023102  0.3662758  0.5482785    0.00000       Uiso       1.00
      H217          H  0.4227040  0.3229961  0.5533868    0.00000       Uiso       1.00
      H218          H  0.4238576  0.2863358  0.5541957    0.00000       Uiso       1.00
      H219          H  0.3457699  0.3168388  0.5391755    0.00000       Uiso       1.00
      C446          C  0.2135216  0.3831261  0.5478168    0.00000       Uiso       1.00
      C447          C  0.2345136  0.3842312  0.5490867    0.00000       Uiso       1.00
      C448          C  0.2351813  0.4059939  0.5515145    0.00000       Uiso       1.00
      C449          C  0.2559221  0.4064230  0.5514964    0.00000       Uiso       1.00
      C450          C  0.2759810  0.3847402  0.5476533    0.00000       Uiso       1.00
      C451          C  0.2747624  0.3629325  0.5448849    0.00000       Uiso       1.00
      C452          C  0.2551552  0.3626067  0.5472968    0.00000       Uiso       1.00
        O8          O  0.1915067  0.4023086  0.5483099    0.00000       Uiso       1.00
      H220          H  0.2195153  0.4227053  0.5534377    0.00000       Uiso       1.00
      H221          H  0.2558285  0.4238508  0.5542433    0.00000       Uiso       1.00
      H222          H  0.2883894  0.3457673  0.5392598    0.00000       Uiso       1.00
      C453          C  0.3629618  0.2135097  0.5477946    0.00000       Uiso       1.00
      C454          C  0.3421448  0.2345053  0.5490835    0.00000       Uiso       1.00
      C455          C  0.3221610  0.2351765  0.5515453    0.00000       Uiso       1.00
      C456          C  0.3009796  0.2559256  0.5515577    0.00000       Uiso       1.00
      C457          C  0.2987545  0.2759902  0.5477180    0.00000       Uiso       1.00
      C458          C  0.3189955  0.2747694  0.5449167    0.00000       Uiso       1.00
      C459          C  0.3413314  0.2551470  0.5472870    0.00000       Uiso       1.00
        O9          O  0.3662976  0.1915058  0.5483165    0.00000       Uiso       1.00
      H223          H  0.3230561  0.2195016  0.5534713    0.00000       Uiso       1.00
      H224          H  0.2864008  0.2558353  0.5543225    0.00000       Uiso       1.00
      H225          H  0.3168968  0.2884096  0.5392985    0.00000       Uiso       1.00
      C460          C  0.3822208  0.2125125  0.5446202    0.00000       Uiso       1.00
      C461          C  0.3826812  0.2329214  0.5440386    0.00000       Uiso       1.00
      C462          C  0.4026809  0.2319946  0.5413808    0.00000       Uiso       1.00
      C463          C  0.4032020  0.2528931  0.5417729    0.00000       Uiso       1.00
      C464          C  0.3843452  0.2756100  0.5462479    0.00000       Uiso       1.00
      C465          C  0.3646322  0.2762445  0.5494328    0.00000       Uiso       1.00
      C466          C  0.3625326  0.2549327  0.5465840    0.00000       Uiso       1.00
       O10          O  0.4005753  0.1897800  0.5428106    0.00000       Uiso       1.00
      H226          H  0.4178941  0.2149361  0.5389021    0.00000       Uiso       1.00
      H227          H  0.4186174  0.2509809  0.5387386    0.00000       Uiso       1.00
      H228          H  0.3515109  0.2936458  0.5555812    0.00000       Uiso       1.00
      C467          C  0.2125391  0.3616983  0.5446844    0.00000       Uiso       1.00
      C468          C  0.2329566  0.3402548  0.5441254    0.00000       Uiso       1.00
      C469          C  0.2320504  0.3185353  0.5415204    0.00000       Uiso       1.00
      C470          C  0.2529557  0.2975165  0.5419288    0.00000       Uiso       1.00
      C471          C  0.2756622  0.2981251  0.5463628    0.00000       Uiso       1.00
      C472          C  0.2762754  0.3203791  0.5494984    0.00000       Uiso       1.00
      C473          C  0.2549559  0.3409316  0.5466374    0.00000       Uiso       1.00
       O11          O  0.1898100  0.3642675  0.5428821    0.00000       Uiso       1.00
      H229          H  0.2149985  0.3179003  0.5390590    0.00000       Uiso       1.00
      H230          H  0.2510517  0.2809886  0.5389311    0.00000       Uiso       1.00
      H231          H  0.2936665  0.3222589  0.5556289    0.00000       Uiso       1.00
      C474          C  0.3616903  0.3822090  0.5446174    0.00000       Uiso       1.00
      C475          C  0.3402456  0.3826658  0.5440424    0.00000       Uiso       1.00
      C476          C  0.3185307  0.4026897  0.5414444    0.00000       Uiso       1.00
      C477          C  0.2975114  0.4032167  0.5418562    0.00000       Uiso       1.00
      C478          C  0.2981135  0.3843286  0.5462775    0.00000       Uiso       1.00
      C479          C  0.3203633  0.3645852  0.5493957    0.00000       Uiso       1.00
      C480          C  0.3409185  0.3624951  0.5465404    0.00000       Uiso       1.00
       O12          O  0.3642611  0.4005820  0.5428420    0.00000       Uiso       1.00
      H232          H  0.3179052  0.4179171  0.5389927    0.00000       Uiso       1.00
      H233          H  0.2809907  0.4186617  0.5388744    0.00000       Uiso       1.00
      H234          H  0.3222388  0.3514351  0.5555139    0.00000       Uiso       1.00
        B7          B  0.3901176  0.3902516  0.5451543    0.00000       Uiso       1.00
        B8          B  0.1765906  0.3901187  0.5451729    0.00000       Uiso       1.00
        B9          B  0.3902528  0.1765788  0.5451500    0.00000       Uiso       1.00
      C481          C  0.3629462  0.3831368  0.1983207    0.00000       Uiso       1.00
      C482          C  0.3421144  0.3842400  0.1773359    0.00000       Uiso       1.00
      C483          C  0.3221196  0.4060078  0.1766688    0.00000       Uiso       1.00
      C484          C  0.3009331  0.4064441  0.1559287    0.00000       Uiso       1.00
      C485          C  0.2987115  0.3847641  0.1358681    0.00000       Uiso       1.00
      C486          C  0.3189550  0.3629482  0.1370884    0.00000       Uiso       1.00
      C487          C  0.3412986  0.3626135  0.1566963    0.00000       Uiso       1.00
       O13          O  0.3662882  0.4023246  0.2203252    0.00000       Uiso       1.00
      H235          H  0.3230098  0.4227198  0.1923322    0.00000       Uiso       1.00
      H236          H  0.2863510  0.4238749  0.1560182    0.00000       Uiso       1.00
      H237          H  0.3168547  0.3457879  0.1234545    0.00000       Uiso       1.00
      C488          C  0.3831455  0.2135430  0.0488556    0.00000       Uiso       1.00
      C489          C  0.3842498  0.2345343  0.0696820    0.00000       Uiso       1.00
      C490          C  0.4060118  0.2352012  0.0896839    0.00000       Uiso       1.00
      C491          C  0.4064400  0.2559412  0.1108711    0.00000       Uiso       1.00
      C492          C  0.3847570  0.2759998  0.1130900    0.00000       Uiso       1.00
      C493          C  0.3629500  0.2747819  0.0928328    0.00000       Uiso       1.00
      C494          C  0.3626252  0.2551757  0.0704889    0.00000       Uiso       1.00
       O14          O  0.4023282  0.1915283  0.0455303    0.00000       Uiso       1.00
      H238          H  0.4227233  0.2195354  0.0888062    0.00000       Uiso       1.00
      H239          H  0.4238673  0.2558470  0.1254577    0.00000       Uiso       1.00
      H240          H  0.3457845  0.2884086  0.0949193    0.00000       Uiso       1.00
      C495          C  0.2135299  0.3629841  0.0287024    0.00000       Uiso       1.00
      C496          C  0.2345256  0.3421671  0.0275922    0.00000       Uiso       1.00
      C497          C  0.2351978  0.3221843  0.0058188    0.00000       Uiso       1.00
      C498          C  0.2559468  0.3010029  0.0053740    0.00000       Uiso       1.00
      C499          C  0.2760105  0.2987768  0.0270522    0.00000       Uiso       1.00
      C500          C  0.2747887  0.3190168  0.0488728    0.00000       Uiso       1.00
      C501          C  0.2551663  0.3413528  0.0492160    0.00000       Uiso       1.00
       O15          O  0.1915268  0.3663206  0.0095131    0.00000       Uiso       1.00
      H241          H  0.2195230  0.3230797  0.9891133    0.00000       Uiso       1.00
      H242          H  0.2558568  0.2864245  0.9879405    0.00000       Uiso       1.00
      H243          H  0.2884279  0.3169172  0.0660316    0.00000       Uiso       1.00
      C502          C  0.2125317  0.3822421  0.0501376    0.00000       Uiso       1.00
      C503          C  0.2329397  0.3827015  0.0715876    0.00000       Uiso       1.00
      C504          C  0.2320119  0.4027002  0.0933173    0.00000       Uiso       1.00
      C505          C  0.2529095  0.4032205  0.1143439    0.00000       Uiso       1.00
      C506          C  0.2756266  0.3843639  0.1137292    0.00000       Uiso       1.00
      C507          C  0.2762622  0.3646519  0.0914670    0.00000       Uiso       1.00
      C508          C  0.2549511  0.3625530  0.0709050    0.00000       Uiso       1.00
       O16          O  0.1897992  0.4005965  0.0475692    0.00000       Uiso       1.00
      H244          H  0.2149533  0.4179133  0.0939506    0.00000       Uiso       1.00
      H245          H  0.2509965  0.4186350  0.1308806    0.00000       Uiso       1.00
      H246          H  0.2936638  0.3515310  0.0895989    0.00000       Uiso       1.00
      C509          C  0.3617183  0.2125612  0.0295784    0.00000       Uiso       1.00
      C510          C  0.3402749  0.2329786  0.0291113    0.00000       Uiso       1.00
      C511          C  0.3185560  0.2320732  0.0090914    0.00000       Uiso       1.00
      C512          C  0.2975373  0.2529786  0.0085695    0.00000       Uiso       1.00
      C513          C  0.2981453  0.2756844  0.0274500    0.00000       Uiso       1.00
      C514          C  0.3203986  0.2762969  0.0471809    0.00000       Uiso       1.00
      C515          C  0.3409509  0.2549773  0.0492748    0.00000       Uiso       1.00
       O17          O  0.3642882  0.1898327  0.0112214    0.00000       Uiso       1.00
      H247          H  0.3179210  0.2150213  0.9938659    0.00000       Uiso       1.00
      H248          H  0.2810093  0.2510746  0.9931355    0.00000       Uiso       1.00
      H249          H  0.3222782  0.2936878  0.0603211    0.00000       Uiso       1.00
      C516          C  0.3822221  0.3617054  0.1993003    0.00000       Uiso       1.00
      C517          C  0.3826796  0.3402615  0.1788881    0.00000       Uiso       1.00
      C518          C  0.4027035  0.3185465  0.1797951    0.00000       Uiso       1.00
      C519          C  0.4032314  0.2975281  0.1588919    0.00000       Uiso       1.00
      C520          C  0.3843444  0.2981313  0.1361857    0.00000       Uiso       1.00
      C521          C  0.3646011  0.3203812  0.1355739    0.00000       Uiso       1.00
      C522          C  0.3625100  0.3409354  0.1568933    0.00000       Uiso       1.00
       O18          O  0.4005941  0.3642752  0.2220185    0.00000       Uiso       1.00
      H250          H  0.4179301  0.3179202  0.1968479    0.00000       Uiso       1.00
      H251          H  0.4186761  0.2810073  0.1607978    0.00000       Uiso       1.00
      H252          H  0.3514520  0.3222577  0.1181821    0.00000       Uiso       1.00
       B10          B  0.3902633  0.3901313  0.2352318    0.00000       Uiso       1.00
       B11          B  0.3901390  0.1766130  0.0215621    0.00000       Uiso       1.00
       B12          B  0.1765991  0.3902752  0.0217073    0.00000       Uiso       1.00
       O19          O  0.7768213  0.8147017  0.6349676    0.00000       Uiso       1.00
       B13          B  0.7648737  0.8015802  0.6102123    0.00000       Uiso       1.00
       B14          B  0.8015789  0.7648751  0.6102123    0.00000       Uiso       1.00
       O20          O  0.7768229  0.7768242  0.5970902    0.00000       Uiso       1.00
       O21          O  0.8147007  0.7768223  0.6349676    0.00000       Uiso       1.00
       B15          B  0.8015774  0.8015782  0.6469154    0.00000       Uiso       1.00
      C523          C  0.8640574  0.3629471  0.1983206    0.00000       Uiso       1.00
      C524          C  0.8628029  0.3421154  0.1773358    0.00000       Uiso       1.00
      C525          C  0.8603629  0.3221205  0.1766687    0.00000       Uiso       1.00
      C526          C  0.8603747  0.3009340  0.1559286    0.00000       Uiso       1.00
      C527          C  0.8642173  0.2987124  0.1358680    0.00000       Uiso       1.00
      C528          C  0.8670099  0.3189559  0.1370884    0.00000       Uiso       1.00
      C529          C  0.8646075  0.3412994  0.1566963    0.00000       Uiso       1.00
       O22          O  0.8635302  0.3662892  0.2203251    0.00000       Uiso       1.00
      H253          H  0.8584229  0.3230107  0.1923321    0.00000       Uiso       1.00
      H254          H  0.8576155  0.2863519  0.1560181    0.00000       Uiso       1.00
      H255          H  0.8726376  0.3168556  0.1234544    0.00000       Uiso       1.00
      C530          C  0.8639990  0.3831464  0.0488555    0.00000       Uiso       1.00
      C531          C  0.8627281  0.3842507  0.0696818    0.00000       Uiso       1.00
      C532          C  0.8602995  0.4060127  0.0896838    0.00000       Uiso       1.00
      C533          C  0.8603168  0.4064409  0.1108709    0.00000       Uiso       1.00
      C534          C  0.8641599  0.3847579  0.1130899    0.00000       Uiso       1.00
      C535          C  0.8669292  0.3629509  0.0928327    0.00000       Uiso       1.00
      C536          C  0.8645182  0.3626260  0.0704888    0.00000       Uiso       1.00
       O23          O  0.8635060  0.4023291  0.0455302    0.00000       Uiso       1.00
      H256          H  0.8583762  0.4227242  0.0888061    0.00000       Uiso       1.00
      H257          H  0.8575691  0.4238682  0.1254576    0.00000       Uiso       1.00
      H258          H  0.8725545  0.3457853  0.0949192    0.00000       Uiso       1.00
      C537          C  0.8640220  0.2135308  0.0287023    0.00000       Uiso       1.00
      C538          C  0.8627332  0.2345265  0.0275921    0.00000       Uiso       1.00
      C539          C  0.8602721  0.2351987  0.0058187    0.00000       Uiso       1.00
      C540          C  0.8602597  0.2559477  0.0053739    0.00000       Uiso       1.00
      C541          C  0.8640987  0.2760113  0.0270521    0.00000       Uiso       1.00
      C542          C  0.8668992  0.2747896  0.0488727    0.00000       Uiso       1.00
      C543          C  0.8645288  0.2551672  0.0492159    0.00000       Uiso       1.00
       O24          O  0.8635008  0.1915277  0.0095130    0.00000       Uiso       1.00
      H259          H  0.8583462  0.2195240  0.9891132    0.00000       Uiso       1.00
      H260          H  0.8574949  0.2558579  0.9879405    0.00000       Uiso       1.00
      H261          H  0.8725170  0.2884288  0.0660315    0.00000       Uiso       1.00
      C544          C  0.8671957  0.2125326  0.0501375    0.00000       Uiso       1.00
      C545          C  0.8677765  0.2329406  0.0715875    0.00000       Uiso       1.00
      C546          C  0.8704334  0.2320128  0.0933172    0.00000       Uiso       1.00
      C547          C  0.8700405  0.2529104  0.1143439    0.00000       Uiso       1.00
      C548          C  0.8655653  0.2756276  0.1137291    0.00000       Uiso       1.00
      C549          C  0.8623812  0.2762631  0.0914669    0.00000       Uiso       1.00
      C550          C  0.8652310  0.2549520  0.0709049    0.00000       Uiso       1.00
       O25          O  0.8690056  0.1898001  0.0475691    0.00000       Uiso       1.00
      H262          H  0.8729123  0.2149542  0.0939505    0.00000       Uiso       1.00
      H263          H  0.8730742  0.2509975  0.1308805    0.00000       Uiso       1.00
      H264          H  0.8562327  0.2936647  0.0895988    0.00000       Uiso       1.00
      C551          C  0.8671324  0.3617192  0.0295783    0.00000       Uiso       1.00
      C552          C  0.8676912  0.3402758  0.0291112    0.00000       Uiso       1.00
      C553          C  0.8702973  0.3185569  0.0090913    0.00000       Uiso       1.00
      C554          C  0.8698890  0.2975381  0.0085694    0.00000       Uiso       1.00
      C555          C  0.8654541  0.2981462  0.0274499    0.00000       Uiso       1.00
      C556          C  0.8623174  0.3203995  0.0471808    0.00000       Uiso       1.00
      C557          C  0.8651785  0.3409518  0.0492747    0.00000       Uiso       1.00
       O26          O  0.8689355  0.3642891  0.0112213    0.00000       Uiso       1.00
      H265          H  0.8727588  0.3179220  0.9938658    0.00000       Uiso       1.00
      H266          H  0.8728868  0.2810103  0.9931353    0.00000       Uiso       1.00
      H267          H  0.8561862  0.3222791  0.0603210    0.00000       Uiso       1.00
      C558          C  0.8671923  0.3822230  0.1993002    0.00000       Uiso       1.00
      C559          C  0.8677683  0.3826806  0.1788880    0.00000       Uiso       1.00
      C560          C  0.8703664  0.4027044  0.1797950    0.00000       Uiso       1.00
      C561          C  0.8699554  0.4032323  0.1588918    0.00000       Uiso       1.00
      C562          C  0.8655348  0.3843453  0.1361856    0.00000       Uiso       1.00
      C563          C  0.8624164  0.3646020  0.1355738    0.00000       Uiso       1.00
      C564          C  0.8652710  0.3625109  0.1568932    0.00000       Uiso       1.00
       O27          O  0.8689669  0.4005950  0.2220184    0.00000       Uiso       1.00
      H268          H  0.8728175  0.4179310  0.1968478    0.00000       Uiso       1.00
      H269          H  0.8729372  0.4186770  0.1607977    0.00000       Uiso       1.00
      H270          H  0.8562987  0.3514529  0.1181820    0.00000       Uiso       1.00
       B16          B  0.8666539  0.3902642  0.2352317    0.00000       Uiso       1.00
       B17          B  0.8666441  0.3901399  0.0215619    0.00000       Uiso       1.00
       B18          B  0.8666671  0.1766000  0.0217072    0.00000       Uiso       1.00
       O28          O  0.7768074  0.8146886  0.9565464    0.00000       Uiso       1.00
       B19          B  0.8015639  0.8015661  0.9562317    0.00000       Uiso       1.00
       B20          B  0.8015639  0.7648609  0.9562317    0.00000       Uiso       1.00
       O29          O  0.8146864  0.7768096  0.9565464    0.00000       Uiso       1.00
       O30          O  0.7768075  0.7768093  0.9565465    0.00000       Uiso       1.00
       B21          B  0.7648591  0.8015656  0.9562317    0.00000       Uiso       1.00
      C565          C  0.3629127  0.8640254  0.0286547    0.00000       Uiso       1.00
      C566          C  0.3420801  0.8627700  0.0275524    0.00000       Uiso       1.00
      C567          C  0.3220861  0.8603309  0.0057856    0.00000       Uiso       1.00
      C568          C  0.3008989  0.8603419  0.0053501    0.00000       Uiso       1.00
      C569          C  0.2986755  0.8641828  0.0270301    0.00000       Uiso       1.00
      C570          C  0.3189182  0.8669747  0.0488450    0.00000       Uiso       1.00
      C571          C  0.3412625  0.8645728  0.0491789    0.00000       Uiso       1.00
       O31          O  0.3662565  0.8634999  0.0094668    0.00000       Uiso       1.00
      H271          H  0.3229771  0.8583918  0.9890732    0.00000       Uiso       1.00
      H272          H  0.2863169  0.8575829  0.9879197    0.00000       Uiso       1.00
      H273          H  0.3168167  0.8726011  0.0660052    0.00000       Uiso       1.00
      C572          C  0.3830990  0.8639540  0.1982477    0.00000       Uiso       1.00
      C573          C  0.3842050  0.8626848  0.1772565    0.00000       Uiso       1.00
      C574          C  0.4059678  0.8602570  0.1765888    0.00000       Uiso       1.00
      C575          C  0.4063978  0.8602760  0.1558488    0.00000       Uiso       1.00
      C576          C  0.3847156  0.8641201  0.1357909    0.00000       Uiso       1.00
      C577          C  0.3629078  0.8668885  0.1370095    0.00000       Uiso       1.00
      C578          C  0.3625812  0.8644758  0.1566158    0.00000       Uiso       1.00
       O32          O  0.4022806  0.8634600  0.2202617    0.00000       Uiso       1.00
      H274          H  0.4226786  0.8583331  0.1922540    0.00000       Uiso       1.00
      H275          H  0.4238257  0.8575289  0.1559423    0.00000       Uiso       1.00
      H276          H  0.3457429  0.8725144  0.1233833    0.00000       Uiso       1.00
      C579          C  0.2134886  0.8639823  0.0488136    0.00000       Uiso       1.00
      C580          C  0.2344835  0.8626925  0.0696297    0.00000       Uiso       1.00
      C581          C  0.2351540  0.8602298  0.0896126    0.00000       Uiso       1.00
      C582          C  0.2559021  0.8602166  0.1107932    0.00000       Uiso       1.00
      C583          C  0.2759665  0.8640563  0.1130183    0.00000       Uiso       1.00
      C584          C  0.2747465  0.8668585  0.0927783    0.00000       Uiso       1.00
      C585          C  0.2551251  0.8644890  0.0704431    0.00000       Uiso       1.00
       O33          O  0.1914849  0.8634605  0.0454779    0.00000       Uiso       1.00
      H277          H  0.2194791  0.8583038  0.0887175    0.00000       Uiso       1.00
      H278          H  0.2558114  0.8574510  0.1253712    0.00000       Uiso       1.00
      H279          H  0.2883863  0.8724769  0.0948771    0.00000       Uiso       1.00
      C586          C  0.2124921  0.8671576  0.0295555    0.00000       Uiso       1.00
      C587          C  0.2329010  0.8677393  0.0290952    0.00000       Uiso       1.00
      C588          C  0.2319749  0.8703979  0.0090964    0.00000       Uiso       1.00
      C589          C  0.2528734  0.8700059  0.0085753    0.00000       Uiso       1.00
      C590          C  0.2755898  0.8655299  0.0274312    0.00000       Uiso       1.00
      C591          C  0.2762236  0.8623441  0.0471432    0.00000       Uiso       1.00
      C592          C  0.2549116  0.8651929  0.0492429    0.00000       Uiso       1.00
       O34          O  0.1897603  0.8689681  0.0112019    0.00000       Uiso       1.00
      H280          H  0.2149163  0.8728769  0.9938835    0.00000       Uiso       1.00
      H281          H  0.2509612  0.8730404  0.9931603    0.00000       Uiso       1.00
      H282          H  0.2936245  0.8561950  0.0602637    0.00000       Uiso       1.00
      C593          C  0.3616710  0.8670865  0.1992303    0.00000       Uiso       1.00
      C594          C  0.3402283  0.8676463  0.1788137    0.00000       Uiso       1.00
      C595          C  0.3185086  0.8702515  0.1797199    0.00000       Uiso       1.00
      C596          C  0.2974907  0.8698439  0.1588154    0.00000       Uiso       1.00
      C597          C  0.2981005  0.8654106  0.1361098    0.00000       Uiso       1.00
      C598          C  0.3203546  0.8622748  0.1354964    0.00000       Uiso       1.00
      C599          C  0.3409061  0.8651352  0.1568151    0.00000       Uiso       1.00
       O35          O  0.3642392  0.8688880  0.2219586    0.00000       Uiso       1.00
      H283          H  0.3178729  0.8727121  0.1967713    0.00000       Uiso       1.00
      H284          H  0.2809626  0.8728416  0.1607195    0.00000       Uiso       1.00
      H285          H  0.3222354  0.8561448  0.1181057    0.00000       Uiso       1.00
      C600          C  0.3821878  0.8671595  0.0500852    0.00000       Uiso       1.00
      C601          C  0.3826436  0.8677337  0.0715291    0.00000       Uiso       1.00
      C602          C  0.4026666  0.8703310  0.0932431    0.00000       Uiso       1.00
      C603          C  0.4031927  0.8699182  0.1142616    0.00000       Uiso       1.00
      C604          C  0.3843049  0.8654968  0.1136593    0.00000       Uiso       1.00
      C605          C  0.3645625  0.8623793  0.0914103    0.00000       Uiso       1.00
      C606          C  0.3624731  0.8652356  0.0708561    0.00000       Uiso       1.00
       O36          O  0.4005608  0.8689352  0.0475146    0.00000       Uiso       1.00
      H286          H  0.4178939  0.8727826  0.0938687    0.00000       Uiso       1.00
      H287          H  0.4186369  0.8728995  0.1307817    0.00000       Uiso       1.00
      H288          H  0.3514127  0.8562610  0.0895346    0.00000       Uiso       1.00
       B22          B  0.3902316  0.8666237  0.0216590    0.00000       Uiso       1.00
       B23          B  0.3900899  0.8665965  0.2351773    0.00000       Uiso       1.00
       B24          B  0.1765587  0.8666281  0.0215238    0.00000       Uiso       1.00
