data_6
_audit_creation_date              0000-00-00
_audit_creation_method            'LanYouShi'
_symmetry_space_group_name_H-M    'P1'
_cell_length_a                    68.7356033
_cell_length_b                    59.5264015
_cell_length_c                    59.5264015
_cell_angle_alpha                 109.4722977
_cell_angle_beta                  54.7352982
_cell_angle_gamma                 125.2647018
loop_
_atom_site_label
_atom_site_type_symbol
_atom_site_fract_x
_atom_site_fract_y
_atom_site_fract_z
_atom_site_U_iso_or_equiv
_atom_site_adp_type
_atom_site_occupancy
        C1          C  0.4999994  0.4999994  0.4999999    0.00000       Uiso       1.00
        C2          C  0.3913080  0.3707513  0.5276566    0.00000       Uiso       1.00
        C3          C  0.4198257  0.3805861  0.5146741    0.00000       Uiso       1.00
        C4          C  0.4292101  0.3615048  0.5046039    0.00000       Uiso       1.00
        C5          C  0.4102792  0.3329281  0.5077904    0.00000       Uiso       1.00
        C6          C  0.3817092  0.3230933  0.5210733    0.00000       Uiso       1.00
        C7          C  0.3723314  0.3421681  0.5309803    0.00000       Uiso       1.00
        H1          H  0.3835564  0.3849806  0.5351864    0.00000       Uiso       1.00
        H2          H  0.3503766  0.3350499  0.5411677    0.00000       Uiso       1.00
        H3          H  0.4512040  0.3687471  0.4942662    0.00000       Uiso       1.00
        C8          C  0.4460856  0.5654988  0.5392395    0.00000       Uiso       1.00
        C9          C  0.4517860  0.5810341  0.5205567    0.00000       Uiso       1.00
       C10          C  0.4276901  0.5661847  0.5677053    0.00000       Uiso       1.00
       C11          C  0.4148578  0.5819290  0.5773510    0.00000       Uiso       1.00
       C12          C  0.4203100  0.5972161  0.5586159    0.00000       Uiso       1.00
       C13          C  0.4388557  0.5966870  0.5301633    0.00000       Uiso       1.00
        H4          H  0.4662373  0.5812560  0.4985756    0.00000       Uiso       1.00
        H5          H  0.4435049  0.6084543  0.5153267    0.00000       Uiso       1.00
        H6          H  0.4232760  0.5545284  0.5824569    0.00000       Uiso       1.00
       C14          C  0.5801732  0.5146738  0.3805866    0.00000       Uiso       1.00
       C15          C  0.6086909  0.5276563  0.3707517    0.00000       Uiso       1.00
       C16          C  0.5707889  0.5046036  0.3615052    0.00000       Uiso       1.00
       C17          C  0.5897199  0.5077901  0.3329285    0.00000       Uiso       1.00
       C18          C  0.6182898  0.5210731  0.3230937    0.00000       Uiso       1.00
       C19          C  0.6276676  0.5309800  0.3421686    0.00000       Uiso       1.00
        H7          H  0.6164426  0.5351861  0.3849811    0.00000       Uiso       1.00
        H8          H  0.6496224  0.5411674  0.3350503    0.00000       Uiso       1.00
        H9          H  0.5487950  0.4942659  0.3687474    0.00000       Uiso       1.00
       C20          C  0.5539133  0.5392390  0.5654993    0.00000       Uiso       1.00
       C21          C  0.5482129  0.5205563  0.5810345    0.00000       Uiso       1.00
       C22          C  0.5723088  0.5677048  0.5661852    0.00000       Uiso       1.00
       C23          C  0.5851411  0.5773505  0.5819295    0.00000       Uiso       1.00
       C24          C  0.5796888  0.5586154  0.5972165    0.00000       Uiso       1.00
       C25          C  0.5611431  0.5301628  0.5966874    0.00000       Uiso       1.00
       H10          H  0.5337616  0.4985752  0.5812564    0.00000       Uiso       1.00
       H11          H  0.5564941  0.5153262  0.6084547    0.00000       Uiso       1.00
       H12          H  0.5767228  0.5824565  0.5545289    0.00000       Uiso       1.00
        F1          F  0.4207927  0.3134201  0.4970547    0.00000       Uiso       1.00
        F2          F  0.6044270  0.6073722  0.5821517    0.00000       Uiso       1.00
        F3          F  0.5792063  0.4970544  0.3134205    0.00000       Uiso       1.00
        F4          F  0.3955719  0.5821512  0.6073726    0.00000       Uiso       1.00
       C26          C  0.4580351  0.4563600  0.4974307    0.00000       Uiso       1.00
       C27          C  0.4792261  0.4684637  0.5035564    0.00000       Uiso       1.00
       C28          C  0.4819973  0.4504145  0.5106214    0.00000       Uiso       1.00
       C29          C  0.4626149  0.4222299  0.5146169    0.00000       Uiso       1.00
       C30          C  0.4402860  0.4107834  0.5106696    0.00000       Uiso       1.00
       C31          C  0.4384924  0.4281662  0.5015962    0.00000       Uiso       1.00
       H13          H  0.4562988  0.4689669  0.4898762    0.00000       Uiso       1.00
       H14          H  0.4222715  0.4198239  0.4971641    0.00000       Uiso       1.00
       H15          H  0.4991790  0.4580228  0.5131875    0.00000       Uiso       1.00
       H16          H  0.4650179  0.4093599  0.5210112    0.00000       Uiso       1.00
       C32          C  0.4856805  0.5172163  0.5107623    0.00000       Uiso       1.00
       C33          C  0.5008935  0.5445329  0.5016748    0.00000       Uiso       1.00
       C34          C  0.4577951  0.5073801  0.5315829    0.00000       Uiso       1.00
       C35          C  0.4449974  0.5227669  0.5403851    0.00000       Uiso       1.00
       C36          C  0.4598271  0.5490431  0.5295025    0.00000       Uiso       1.00
       C37          C  0.4880770  0.5599101  0.5103260    0.00000       Uiso       1.00
       H17          H  0.5227913  0.5538238  0.4873315    0.00000       Uiso       1.00
       H18          H  0.5003877  0.5805631  0.5024471    0.00000       Uiso       1.00
       H19          H  0.4456557  0.4876323  0.5411563    0.00000       Uiso       1.00
       H20          H  0.4233301  0.5139696  0.5556582    0.00000       Uiso       1.00
       C38          C  0.5207728  0.5035560  0.4684641    0.00000       Uiso       1.00
       C39          C  0.5419639  0.4974304  0.4563605    0.00000       Uiso       1.00
       C40          C  0.5180016  0.5106209  0.4504149    0.00000       Uiso       1.00
       C41          C  0.5373841  0.5146165  0.4222302    0.00000       Uiso       1.00
       C42          C  0.5597129  0.5106692  0.4107839    0.00000       Uiso       1.00
       C43          C  0.5615066  0.5015959  0.4281667    0.00000       Uiso       1.00
       H21          H  0.5437003  0.4898760  0.4689674    0.00000       Uiso       1.00
       H22          H  0.5777277  0.4971641  0.4198244    0.00000       Uiso       1.00
       H23          H  0.5008199  0.5131871  0.4580232    0.00000       Uiso       1.00
       H24          H  0.5349811  0.5210109  0.4093603    0.00000       Uiso       1.00
       C44          C  0.5143184  0.5107619  0.5172167    0.00000       Uiso       1.00
       C45          C  0.4991054  0.5016745  0.5445334    0.00000       Uiso       1.00
       C46          C  0.5422038  0.5315824  0.5073805    0.00000       Uiso       1.00
       C47          C  0.5550016  0.5403846  0.5227674    0.00000       Uiso       1.00
       C48          C  0.5401718  0.5295020  0.5490435    0.00000       Uiso       1.00
       C49          C  0.5119219  0.5103256  0.5599107    0.00000       Uiso       1.00
       H25          H  0.4772076  0.4873313  0.5538242    0.00000       Uiso       1.00
       H26          H  0.4996111  0.5024469  0.5805636    0.00000       Uiso       1.00
       H27          H  0.5543433  0.5411558  0.4876327    0.00000       Uiso       1.00
       H28          H  0.5766689  0.5556576  0.5139700    0.00000       Uiso       1.00
       C50          C  0.6250037  0.3749967  0.8749924    0.00000       Uiso       1.00
       C51          C  0.6455595  0.4232106  0.9836853    0.00000       Uiso       1.00
       C52          C  0.6642423  0.4289113  0.9551674    0.00000       Uiso       1.00
       C53          C  0.6927076  0.4473074  0.9457833    0.00000       Uiso       1.00
       C54          C  0.7023531  0.4601399  0.9647145    0.00000       Uiso       1.00
       C55          C  0.6836181  0.4546873  0.9932845    0.00000       Uiso       1.00
       C56          C  0.6551670  0.4361418  0.0026624    0.00000       Uiso       1.00
       H29          H  0.6235787  0.4087588  0.9914368    0.00000       Uiso       1.00
       H30          H  0.6403306  0.4314924  0.0246173    0.00000       Uiso       1.00
       H31          H  0.7074592  0.4517217  0.9237891    0.00000       Uiso       1.00
       C57          C  0.5055919  0.2948207  0.9289055    0.00000       Uiso       1.00
       C58          C  0.4957576  0.2663028  0.9232042    0.00000       Uiso       1.00
       C59          C  0.4865104  0.3042046  0.9473017    0.00000       Uiso       1.00
       C60          C  0.4579341  0.2852732  0.9601338    0.00000       Uiso       1.00
       C61          C  0.4480998  0.2567030  0.9546807    0.00000       Uiso       1.00
       C62          C  0.4671748  0.2473256  0.9361343    0.00000       Uiso       1.00
       H32          H  0.5099871  0.2585514  0.9087524    0.00000       Uiso       1.00
       H33          H  0.4600571  0.2253707  0.9314844    0.00000       Uiso       1.00
       H34          H  0.4937522  0.3261987  0.9517165    0.00000       Uiso       1.00
       C63          C  0.6905043  0.3210842  0.7948154    0.00000       Uiso       1.00
       C64          C  0.7060394  0.3267849  0.7662976    0.00000       Uiso       1.00
       C65          C  0.6911905  0.3026887  0.8041990    0.00000       Uiso       1.00
       C66          C  0.7069350  0.2898567  0.7852672    0.00000       Uiso       1.00
       C67          C  0.7222220  0.2953093  0.7566972    0.00000       Uiso       1.00
       C68          C  0.7216925  0.3138550  0.7473201    0.00000       Uiso       1.00
       H35          H  0.7062610  0.3412362  0.7585464    0.00000       Uiso       1.00
       H36          H  0.7334597  0.3185043  0.7253653    0.00000       Uiso       1.00
       H37          H  0.6795343  0.2982745  0.8261929    0.00000       Uiso       1.00
       C69          C  0.6396765  0.4551707  0.8210813    0.00000       Uiso       1.00
       C70          C  0.6526584  0.4836886  0.8267826    0.00000       Uiso       1.00
       C71          C  0.6296065  0.4457862  0.8026857    0.00000       Uiso       1.00
       C72          C  0.6327927  0.4647172  0.7898541    0.00000       Uiso       1.00
       C73          C  0.6460750  0.4932874  0.7953072    0.00000       Uiso       1.00
       C74          C  0.6559818  0.5026653  0.8138530    0.00000       Uiso       1.00
       H38          H  0.6601880  0.4914404  0.8412341    0.00000       Uiso       1.00
       H39          H  0.6661688  0.5246203  0.8185028    0.00000       Uiso       1.00
       H40          H  0.6192693  0.4237921  0.7982711    0.00000       Uiso       1.00
        F5          F  0.7323744  0.4794264  0.9542010    0.00000       Uiso       1.00
        F6          F  0.6220571  0.4542034  0.7705680    0.00000       Uiso       1.00
        F7          F  0.7071577  0.2705709  0.7957801    0.00000       Uiso       1.00
        F8          F  0.4384257  0.2957864  0.9794205    0.00000       Uiso       1.00
       C75          C  0.6266788  0.3741027  0.9169567    0.00000       Uiso       1.00
       C76          C  0.6357659  0.3893159  0.8957661    0.00000       Uiso       1.00
       C77          C  0.6565857  0.4172017  0.8929955    0.00000       Uiso       1.00
       C78          C  0.6653877  0.4299996  0.9123783    0.00000       Uiso       1.00
       C79          C  0.6545056  0.4151697  0.9347067    0.00000       Uiso       1.00
       C80          C  0.6353297  0.3869194  0.9364997    0.00000       Uiso       1.00
       H41          H  0.6123359  0.3522046  0.9186924    0.00000       Uiso       1.00
       H42          H  0.6274512  0.3746085  0.9527203    0.00000       Uiso       1.00
       H43          H  0.6661589  0.4293414  0.8758141    0.00000       Uiso       1.00
       H44          H  0.6806602  0.4516672  0.9099758    0.00000       Uiso       1.00
       C81          C  0.5934684  0.3542228  0.8893112    0.00000       Uiso       1.00
       C82          C  0.5813652  0.3330314  0.8740975    0.00000       Uiso       1.00
       C83          C  0.5754191  0.3569938  0.9171969    0.00000       Uiso       1.00
       C84          C  0.5472348  0.3376108  0.9299945    0.00000       Uiso       1.00
       C85          C  0.5357888  0.3152816  0.9151642    0.00000       Uiso       1.00
       C86          C  0.5531717  0.3134882  0.8869139    0.00000       Uiso       1.00
       H45          H  0.5939721  0.3312953  0.8521995    0.00000       Uiso       1.00
       H46          H  0.5448297  0.2972670  0.8746027    0.00000       Uiso       1.00
       H47          H  0.5830271  0.3741756  0.9293369    0.00000       Uiso       1.00
       H48          H  0.5343648  0.3400137  0.9516621    0.00000       Uiso       1.00
       C87          C  0.6422209  0.3606781  0.8542182    0.00000       Uiso       1.00
       C88          C  0.6695372  0.3758917  0.8330271    0.00000       Uiso       1.00
       C89          C  0.6323852  0.3327926  0.8569885    0.00000       Uiso       1.00
       C90          C  0.6477723  0.3199951  0.8376053    0.00000       Uiso       1.00
       C91          C  0.6740482  0.3348254  0.8152764    0.00000       Uiso       1.00
       C92          C  0.6849147  0.3630755  0.8134837    0.00000       Uiso       1.00
       H49          H  0.6788276  0.3977896  0.8312914    0.00000       Uiso       1.00
       H50          H  0.7055675  0.3753866  0.7972626    0.00000       Uiso       1.00
       H51          H  0.6126376  0.3206527  0.8741701    0.00000       Uiso       1.00
       H52          H  0.6389753  0.2983277  0.8400076    0.00000       Uiso       1.00
       C93          C  0.6285599  0.3957701  0.8606741    0.00000       Uiso       1.00
       C94          C  0.6224337  0.4169610  0.8758882    0.00000       Uiso       1.00
       C95          C  0.6356249  0.3929990  0.8327885    0.00000       Uiso       1.00
       C96          C  0.6396201  0.4123815  0.8199915    0.00000       Uiso       1.00
       C97          C  0.6356724  0.4347104  0.8348222    0.00000       Uiso       1.00
       C98          C  0.6265989  0.4365038  0.8630723    0.00000       Uiso       1.00
       H53          H  0.6148791  0.4186971  0.8977861    0.00000       Uiso       1.00
       H54          H  0.6221665  0.4527247  0.8753837    0.00000       Uiso       1.00
       H55          H  0.6381913  0.3758174  0.8206483    0.00000       Uiso       1.00
       H56          H  0.6460144  0.4099786  0.7983240    0.00000       Uiso       1.00
       C99          C  0.8749985  0.0000019  0.7500072    0.00000       Uiso       1.00
      C100          C  0.8473390  0.0810361  0.7294551    0.00000       Uiso       1.00
      C101          C  0.8603213  0.0655006  0.7107715    0.00000       Uiso       1.00
      C102          C  0.8703905  0.0661859  0.6823060    0.00000       Uiso       1.00
      C103          C  0.8672032  0.0819300  0.6726612    0.00000       Uiso       1.00
      C104          C  0.8539206  0.0972174  0.6913970    0.00000       Uiso       1.00
      C105          C  0.8440145  0.0966888  0.7198495    0.00000       Uiso       1.00
       H57          H  0.8398099  0.0812584  0.7514360    0.00000       Uiso       1.00
       H58          H  0.8338272  0.1084564  0.7346866    0.00000       Uiso       1.00
       H59          H  0.8807281  0.0545293  0.6675537    0.00000       Uiso       1.00
      C106          C  0.8357624  0.0146783  0.8694202    0.00000       Uiso       1.00
      C107          C  0.8544457  0.0276610  0.8792548    0.00000       Uiso       1.00
      C108          C  0.8072971  0.0046085  0.8885020    0.00000       Uiso       1.00
      C109          C  0.7976522  0.0077956  0.9170786    0.00000       Uiso       1.00
      C110          C  0.8163878  0.0210787  0.9269130    0.00000       Uiso       1.00
      C111          C  0.8448400  0.0309853  0.9078378    0.00000       Uiso       1.00
       H60          H  0.8764265  0.0351905  0.8650250    0.00000       Uiso       1.00
       H61          H  0.8596769  0.0411729  0.9149557    0.00000       Uiso       1.00
       H62          H  0.7925457  0.9942704  0.8812601    0.00000       Uiso       1.00
      C112          C  0.9944109  0.0392403  0.6845059    0.00000       Uiso       1.00
      C113          C  0.0042463  0.0205572  0.6689699    0.00000       Uiso       1.00
      C114          C  0.0134927  0.0677060  0.6838204    0.00000       Uiso       1.00
      C115          C  0.0420691  0.0773514  0.6680756    0.00000       Uiso       1.00
      C116          C  0.0519039  0.0586161  0.6527878    0.00000       Uiso       1.00
      C117          C  0.0328292  0.0301634  0.6533166    0.00000       Uiso       1.00
       H63          H  0.9900173  0.9985759  0.6687477    0.00000       Uiso       1.00
       H64          H  0.0399474  0.0153266  0.6415486    0.00000       Uiso       1.00
       H65          H  0.0062504  0.0824579  0.6954774    0.00000       Uiso       1.00
      C118          C  0.8095003  0.8805880  0.7353312    0.00000       Uiso       1.00
      C119          C  0.7939645  0.8707529  0.7223492    0.00000       Uiso       1.00
      C120          C  0.8088152  0.8615068  0.7454004    0.00000       Uiso       1.00
      C121          C  0.7930710  0.8329301  0.7422134    0.00000       Uiso       1.00
      C122          C  0.7777833  0.8230950  0.7289310    0.00000       Uiso       1.00
      C123          C  0.7783117  0.8421697  0.7190250    0.00000       Uiso       1.00
       H66          H  0.7937421  0.8849822  0.7148201    0.00000       Uiso       1.00
       H67          H  0.7665439  0.8350513  0.7088379    0.00000       Uiso       1.00
       H68          H  0.8204719  0.8687493  0.7557377    0.00000       Uiso       1.00
        F9          F  0.8779382  0.0821517  0.6426396    0.00000       Uiso       1.00
       F10          F  0.7928495  0.8134222  0.7529483    0.00000       Uiso       1.00
       F11          F  0.0615770  0.1073731  0.6678538    0.00000       Uiso       1.00
       F12          F  0.7676316  0.9970599  0.9365871    0.00000       Uiso       1.00
      C124          C  0.8775668  0.0445353  0.7483338    0.00000       Uiso       1.00
      C125          C  0.8714412  0.0172184  0.7392458    0.00000       Uiso       1.00
      C126          C  0.8643755  0.0073819  0.7184257    0.00000       Uiso       1.00
      C127          C  0.8603792  0.0227686  0.7096244    0.00000       Uiso       1.00
      C128          C  0.8643265  0.0490449  0.7205075    0.00000       Uiso       1.00
      C129          C  0.8734007  0.0599124  0.7396836    0.00000       Uiso       1.00
       H69          H  0.8851219  0.0538265  0.7626768    0.00000       Uiso       1.00
       H70          H  0.8778327  0.0805656  0.7475627    0.00000       Uiso       1.00
       H71          H  0.8618101  0.9876336  0.7088519    0.00000       Uiso       1.00
       H72          H  0.8539844  0.0139709  0.6943516    0.00000       Uiso       1.00
      C130          C  0.8642371  0.0035590  0.7815429    0.00000       Uiso       1.00
      C131          C  0.8733261  0.9974334  0.7936457    0.00000       Uiso       1.00
      C132          C  0.8434166  0.0106241  0.7995928    0.00000       Uiso       1.00
      C133          C  0.8346152  0.0146202  0.8277774    0.00000       Uiso       1.00
      C134          C  0.8454985  0.0106733  0.8392231    0.00000       Uiso       1.00
      C135          C  0.8646750  0.0015997  0.8218395    0.00000       Uiso       1.00
       H73          H  0.8876693  0.9898787  0.7810382    0.00000       Uiso       1.00
       H74          H  0.8725551  0.9971676  0.8301811    0.00000       Uiso       1.00
       H75          H  0.8338427  0.0131900  0.7919851    0.00000       Uiso       1.00
       H76          H  0.8193421  0.0210146  0.8406480    0.00000       Uiso       1.00
      C136          C  0.9065341  0.0107640  0.7327899    0.00000       Uiso       1.00
      C137          C  0.9186370  0.0016761  0.7054729    0.00000       Uiso       1.00
      C138          C  0.9245836  0.0315847  0.7426260    0.00000       Uiso       1.00
      C139          C  0.9527680  0.0403866  0.7272387    0.00000       Uiso       1.00
      C140          C  0.9642139  0.0295036  0.7009622    0.00000       Uiso       1.00
      C141          C  0.9468306  0.0103269  0.6900952    0.00000       Uiso       1.00
       H77          H  0.9060307  0.9873322  0.6961823    0.00000       Uiso       1.00
       H78          H  0.9551724  0.0024476  0.6694421    0.00000       Uiso       1.00
       H79          H  0.9169756  0.0411584  0.7623741    0.00000       Uiso       1.00
       H80          H  0.9656382  0.0556597  0.7360360    0.00000       Uiso       1.00
      C142          C  0.8577827  0.9684657  0.7464502    0.00000       Uiso       1.00
      C143          C  0.8304659  0.9563622  0.7525764    0.00000       Uiso       1.00
      C144          C  0.8676191  0.9504164  0.7393844    0.00000       Uiso       1.00
      C145          C  0.8522323  0.9222317  0.7353884    0.00000       Uiso       1.00
      C146          C  0.8259561  0.9107854  0.7393360    0.00000       Uiso       1.00
      C147          C  0.8150887  0.9281683  0.7484105    0.00000       Uiso       1.00
       H81          H  0.8211749  0.9689692  0.7601317    0.00000       Uiso       1.00
       H82          H  0.7944356  0.9198261  0.7528430    0.00000       Uiso       1.00
       H83          H  0.8873671  0.9580247  0.7368178    0.00000       Uiso       1.00
       H84          H  0.8610299  0.9093617  0.7289934    0.00000       Uiso       1.00
      C148          C  0.3749951  0.8749921  0.3749974    0.00000       Uiso       1.00
      C149          C  0.3544392  0.9836848  0.4232114    0.00000       Uiso       1.00
      C150          C  0.3357565  0.9551670  0.4289121    0.00000       Uiso       1.00
      C151          C  0.3072911  0.9457828  0.4473082    0.00000       Uiso       1.00
      C152          C  0.2976456  0.9647141  0.4601406    0.00000       Uiso       1.00
      C153          C  0.3163806  0.9932842  0.4546881    0.00000       Uiso       1.00
      C154          C  0.3448321  0.0026620  0.4361418    0.00000       Uiso       1.00
       H85          H  0.3764201  0.9914364  0.4087597    0.00000       Uiso       1.00
       H86          H  0.3596686  0.0246169  0.4314924    0.00000       Uiso       1.00
       H87          H  0.2925395  0.9237888  0.4517224    0.00000       Uiso       1.00
      C155          C  0.4944069  0.9289052  0.2948215    0.00000       Uiso       1.00
      C156          C  0.5042412  0.9232039  0.2663036    0.00000       Uiso       1.00
      C157          C  0.5134885  0.9473014  0.3042054    0.00000       Uiso       1.00
      C158          C  0.5420648  0.9601336  0.2852739    0.00000       Uiso       1.00
      C159          C  0.5518991  0.9546805  0.2567038    0.00000       Uiso       1.00
      C160          C  0.5328240  0.9361340  0.2473264    0.00000       Uiso       1.00
       H88          H  0.4900117  0.9087521  0.2585522    0.00000       Uiso       1.00
       H89          H  0.5399418  0.9314842  0.2253715    0.00000       Uiso       1.00
       H90          H  0.5062466  0.9517162  0.3261995    0.00000       Uiso       1.00
      C161          C  0.3094946  0.7948151  0.3210849    0.00000       Uiso       1.00
      C162          C  0.2939595  0.7662973  0.3267855    0.00000       Uiso       1.00
      C163          C  0.3088084  0.8041986  0.3026893    0.00000       Uiso       1.00
      C164          C  0.2930638  0.7852669  0.2898574    0.00000       Uiso       1.00
      C165          C  0.2777769  0.7566969  0.2953099    0.00000       Uiso       1.00
      C166          C  0.2783064  0.7473199  0.3138556    0.00000       Uiso       1.00
       H91          H  0.2937379  0.7585461  0.3412368    0.00000       Uiso       1.00
       H92          H  0.2665391  0.7253650  0.3185049    0.00000       Uiso       1.00
       H93          H  0.3204646  0.8261926  0.2982751    0.00000       Uiso       1.00
      C167          C  0.3603223  0.8210810  0.4551714    0.00000       Uiso       1.00
      C168          C  0.3473404  0.8267822  0.4836893    0.00000       Uiso       1.00
      C169          C  0.3703924  0.8026854  0.4457868    0.00000       Uiso       1.00
      C170          C  0.3672061  0.7898537  0.4647178    0.00000       Uiso       1.00
      C171          C  0.3539238  0.7953067  0.4932880    0.00000       Uiso       1.00
      C172          C  0.3440170  0.8138526  0.5026660    0.00000       Uiso       1.00
       H94          H  0.3398107  0.8412336  0.4914411    0.00000       Uiso       1.00
       H95          H  0.3338299  0.8185024  0.5246210    0.00000       Uiso       1.00
       H96          H  0.3807296  0.7982706  0.4237927    0.00000       Uiso       1.00
       F13          F  0.2676243  0.9542006  0.4794271    0.00000       Uiso       1.00
       F14          F  0.3779417  0.7705676  0.4542040    0.00000       Uiso       1.00
       F15          F  0.2928413  0.7957798  0.2705715    0.00000       Uiso       1.00
       F16          F  0.5615731  0.9794202  0.2957872    0.00000       Uiso       1.00
      C173          C  0.3733200  0.9169564  0.3741034    0.00000       Uiso       1.00
      C174          C  0.3642329  0.8957657  0.3893166    0.00000       Uiso       1.00
      C175          C  0.3434131  0.8929952  0.4172024    0.00000       Uiso       1.00
      C176          C  0.3346111  0.9123778  0.4300004    0.00000       Uiso       1.00
      C177          C  0.3454933  0.9347064  0.4151704    0.00000       Uiso       1.00
      C178          C  0.3646691  0.9364993  0.3869201    0.00000       Uiso       1.00
       H97          H  0.3876628  0.9186921  0.3522054    0.00000       Uiso       1.00
       H98          H  0.3725476  0.9527199  0.3746093    0.00000       Uiso       1.00
       H99          H  0.3338399  0.8758137  0.4293421    0.00000       Uiso       1.00
      H100          H  0.3193385  0.9099754  0.4516679    0.00000       Uiso       1.00
      C179          C  0.4065305  0.8893108  0.3542235    0.00000       Uiso       1.00
      C180          C  0.4186337  0.8740972  0.3330321    0.00000       Uiso       1.00
      C181          C  0.4245797  0.9171966  0.3569945    0.00000       Uiso       1.00
      C182          C  0.4527641  0.9299942  0.3376115    0.00000       Uiso       1.00
      C183          C  0.4642100  0.9151639  0.3152823    0.00000       Uiso       1.00
      C184          C  0.4468271  0.8869136  0.3134889    0.00000       Uiso       1.00
      H101          H  0.4060268  0.8521993  0.3312960    0.00000       Uiso       1.00
      H102          H  0.4551691  0.8746024  0.2972677    0.00000       Uiso       1.00
      H103          H  0.4169717  0.9293366  0.3741764    0.00000       Uiso       1.00
      H104          H  0.4656340  0.9516618  0.3400145    0.00000       Uiso       1.00
      C185          C  0.3577780  0.8542178  0.3606788    0.00000       Uiso       1.00
      C186          C  0.3304616  0.8330268  0.3758924    0.00000       Uiso       1.00
      C187          C  0.3676136  0.8569882  0.3327933    0.00000       Uiso       1.00
      C188          C  0.3522265  0.8376050  0.3199958    0.00000       Uiso       1.00
      C189          C  0.3259507  0.8152762  0.3348260    0.00000       Uiso       1.00
      C190          C  0.3150841  0.8134834  0.3630761    0.00000       Uiso       1.00
      H105          H  0.3211712  0.8312911  0.3977903    0.00000       Uiso       1.00
      H106          H  0.2944314  0.7972623  0.3753872    0.00000       Uiso       1.00
      H107          H  0.3873613  0.8741698  0.3206534    0.00000       Uiso       1.00
      H108          H  0.3610235  0.8400074  0.2983283    0.00000       Uiso       1.00
      C191          C  0.3714390  0.8606738  0.3957708    0.00000       Uiso       1.00
      C192          C  0.3775650  0.8758878  0.4169617    0.00000       Uiso       1.00
      C193          C  0.3643740  0.8327882  0.3929996    0.00000       Uiso       1.00
      C194          C  0.3603788  0.8199911  0.4123822    0.00000       Uiso       1.00
      C195          C  0.3643264  0.8348217  0.4347110    0.00000       Uiso       1.00
      C196          C  0.3733999  0.8630719  0.4365045    0.00000       Uiso       1.00
      H109          H  0.3851196  0.8977857  0.4186979    0.00000       Uiso       1.00
      H110          H  0.3778323  0.8753834  0.4527254    0.00000       Uiso       1.00
      H111          H  0.3618076  0.8206481  0.3758180    0.00000       Uiso       1.00
      H112          H  0.3539844  0.7983236  0.4099792    0.00000       Uiso       1.00
      C197          C  0.1250005  0.7500072  0.0000024    0.00000       Uiso       1.00
      C198          C  0.1526601  0.7294549  0.0810367    0.00000       Uiso       1.00
      C199          C  0.1396777  0.7107714  0.0655011    0.00000       Uiso       1.00
      C200          C  0.1296085  0.6823058  0.0661864    0.00000       Uiso       1.00
      C201          C  0.1327958  0.6726611  0.0819306    0.00000       Uiso       1.00
      C202          C  0.1460785  0.6913968  0.0972180    0.00000       Uiso       1.00
      C203          C  0.1559845  0.7198493  0.0966894    0.00000       Uiso       1.00
      H113          H  0.1601891  0.7514359  0.0812590    0.00000       Uiso       1.00
      H114          H  0.1661718  0.7346865  0.1084570    0.00000       Uiso       1.00
      H115          H  0.1192710  0.6675537  0.0545298    0.00000       Uiso       1.00
      C204          C  0.1642366  0.8694202  0.0146790    0.00000       Uiso       1.00
      C205          C  0.1455533  0.8792546  0.0276617    0.00000       Uiso       1.00
      C206          C  0.1927020  0.8885019  0.0046092    0.00000       Uiso       1.00
      C207          C  0.2023468  0.9170786  0.0077963    0.00000       Uiso       1.00
      C208          C  0.1836112  0.9269129  0.0210794    0.00000       Uiso       1.00
      C209          C  0.1551590  0.9078377  0.0309860    0.00000       Uiso       1.00
      H116          H  0.1235725  0.8650249  0.0351912    0.00000       Uiso       1.00
      H117          H  0.1403220  0.9149556  0.0411736    0.00000       Uiso       1.00
      H118          H  0.2074527  0.8812593  0.9942711    0.00000       Uiso       1.00
      C210          C  0.0055882  0.6845058  0.0392408    0.00000       Uiso       1.00
      C211          C  0.9957528  0.6689699  0.0205577    0.00000       Uiso       1.00
      C212          C  0.9865063  0.6838203  0.0677065    0.00000       Uiso       1.00
      C213          C  0.9579299  0.6680756  0.0773519    0.00000       Uiso       1.00
      C214          C  0.9480951  0.6527877  0.0586165    0.00000       Uiso       1.00
      C215          C  0.9671698  0.6533164  0.0301639    0.00000       Uiso       1.00
      H119          H  0.0099814  0.6687469  0.9985763    0.00000       Uiso       1.00
      H120          H  0.9600517  0.6415486  0.0153271    0.00000       Uiso       1.00
      H121          H  0.9937485  0.6954772  0.0824584    0.00000       Uiso       1.00
      C216          C  0.1904983  0.7353305  0.8805887    0.00000       Uiso       1.00
      C217          C  0.2060341  0.7223485  0.8707535    0.00000       Uiso       1.00
      C218          C  0.1911835  0.7453997  0.8615074    0.00000       Uiso       1.00
      C219          C  0.2069277  0.7422127  0.8329307    0.00000       Uiso       1.00
      C220          C  0.2222154  0.7289303  0.8230956    0.00000       Uiso       1.00
      C221          C  0.2216869  0.7190243  0.8421702    0.00000       Uiso       1.00
      H122          H  0.2062566  0.7148193  0.8849827    0.00000       Uiso       1.00
      H123          H  0.2334547  0.7088372  0.8350519    0.00000       Uiso       1.00
      H124          H  0.1795267  0.7557370  0.8687499    0.00000       Uiso       1.00
       F17          F  0.1220609  0.6426396  0.0821522    0.00000       Uiso       1.00
       F18          F  0.2071491  0.7529476  0.8134228    0.00000       Uiso       1.00
       F19          F  0.9384220  0.6678537  0.1073736    0.00000       Uiso       1.00
       F20          F  0.2323668  0.9365862  0.9970607    0.00000       Uiso       1.00
      C222          C  0.1224323  0.7483338  0.0445359    0.00000       Uiso       1.00
      C223          C  0.1285579  0.7392457  0.0172190    0.00000       Uiso       1.00
      C224          C  0.1356236  0.7184257  0.0073824    0.00000       Uiso       1.00
      C225          C  0.1396199  0.7096244  0.0227691    0.00000       Uiso       1.00
      C226          C  0.1356725  0.7205074  0.0490455    0.00000       Uiso       1.00
      C227          C  0.1265984  0.7396835  0.0599130    0.00000       Uiso       1.00
      H125          H  0.1148772  0.7626767  0.0538270    0.00000       Uiso       1.00
      H126          H  0.1221663  0.7475626  0.0805662    0.00000       Uiso       1.00
      H127          H  0.1381885  0.7088510  0.9876341    0.00000       Uiso       1.00
      H128          H  0.1460147  0.6943516  0.0139714    0.00000       Uiso       1.00
      C228          C  0.1357621  0.7815429  0.0035596    0.00000       Uiso       1.00
      C229          C  0.1266725  0.7936449  0.9974340    0.00000       Uiso       1.00
      C230          C  0.1565824  0.7995927  0.0106247    0.00000       Uiso       1.00
      C231          C  0.1653838  0.8277774  0.0146208    0.00000       Uiso       1.00
      C232          C  0.1545005  0.8392230  0.0106740    0.00000       Uiso       1.00
      C233          C  0.1353241  0.8218394  0.0016003    0.00000       Uiso       1.00
      H129          H  0.1123293  0.7810374  0.9898794    0.00000       Uiso       1.00
      H130          H  0.1274435  0.8301803  0.9971683    0.00000       Uiso       1.00
      H131          H  0.1661563  0.7919850  0.0131906    0.00000       Uiso       1.00
      H132          H  0.1806569  0.8406479  0.0210152    0.00000       Uiso       1.00
      C234          C  0.0934650  0.7327899  0.0107646    0.00000       Uiso       1.00
      C235          C  0.0813620  0.7054728  0.0016766    0.00000       Uiso       1.00
      C236          C  0.0754155  0.7426260  0.0315852    0.00000       Uiso       1.00
      C237          C  0.0472310  0.7272386  0.0403871    0.00000       Uiso       1.00
      C238          C  0.0357852  0.7009621  0.0295041    0.00000       Uiso       1.00
      C239          C  0.0531684  0.6900951  0.0103274    0.00000       Uiso       1.00
      H133          H  0.0939681  0.6961814  0.9873328    0.00000       Uiso       1.00
      H134          H  0.0448267  0.6694420  0.0024481    0.00000       Uiso       1.00
      H135          H  0.0830233  0.7623740  0.0411590    0.00000       Uiso       1.00
      H136          H  0.0343608  0.7360358  0.0556602    0.00000       Uiso       1.00
      C240          C  0.1422159  0.7464494  0.9684663    0.00000       Uiso       1.00
      C241          C  0.1695327  0.7525755  0.9563628    0.00000       Uiso       1.00
      C242          C  0.1323795  0.7393836  0.9504170    0.00000       Uiso       1.00
      C243          C  0.1477663  0.7353876  0.9222323    0.00000       Uiso       1.00
      C244          C  0.1740426  0.7393352  0.9107860    0.00000       Uiso       1.00
      C245          C  0.1849099  0.7484097  0.9281690    0.00000       Uiso       1.00
      H137          H  0.1788237  0.7601308  0.9689699    0.00000       Uiso       1.00
      H138          H  0.2055630  0.7528421  0.9198267    0.00000       Uiso       1.00
      H139          H  0.1126316  0.7368171  0.9580253    0.00000       Uiso       1.00
      H140          H  0.1389688  0.7289926  0.9093623    0.00000       Uiso       1.00
      C246          C  0.9999993  0.2499800  0.2499999    0.00000       Uiso       1.00
      C247          C  0.0482093  0.3792270  0.2223444    0.00000       Uiso       1.00
      C248          C  0.0539107  0.3693928  0.2353262    0.00000       Uiso       1.00
      C249          C  0.0723066  0.3884747  0.2453959    0.00000       Uiso       1.00
      C250          C  0.0851381  0.4170512  0.2422094    0.00000       Uiso       1.00
      C251          C  0.0796849  0.4268855  0.2289272    0.00000       Uiso       1.00
      C252          C  0.0611388  0.4078101  0.2190208    0.00000       Uiso       1.00
      H141          H  0.0337577  0.3649971  0.2148151    0.00000       Uiso       1.00
      H142          H  0.0564888  0.4149277  0.2088339    0.00000       Uiso       1.00
      H143          H  0.0767214  0.3812330  0.2557330    0.00000       Uiso       1.00
      C253          C  0.9198236  0.1844780  0.2107629    0.00000       Uiso       1.00
      C254          C  0.8913060  0.1689423  0.2294462    0.00000       Uiso       1.00
      C255          C  0.9292071  0.1837920  0.1822973    0.00000       Uiso       1.00
      C256          C  0.9102758  0.1680470  0.1726522    0.00000       Uiso       1.00
      C257          C  0.8817060  0.1527595  0.1913878    0.00000       Uiso       1.00
      C258          C  0.8723289  0.1532888  0.2198403    0.00000       Uiso       1.00
      H144          H  0.8835549  0.1687205  0.2514271    0.00000       Uiso       1.00
      H145          H  0.8503743  0.1415211  0.2346772    0.00000       Uiso       1.00
      H146          H  0.9512009  0.1954486  0.1675453    0.00000       Uiso       1.00
      C259          C  0.9460884  0.2353062  0.3694127    0.00000       Uiso       1.00
      C260          C  0.9517898  0.2223244  0.3792469    0.00000       Uiso       1.00
      C261          C  0.9276925  0.2453759  0.3884946    0.00000       Uiso       1.00
      C262          C  0.9148610  0.2421894  0.4170711    0.00000       Uiso       1.00
      C263          C  0.9203143  0.2289072  0.4269053    0.00000       Uiso       1.00
      C264          C  0.9388603  0.2190008  0.4078299    0.00000       Uiso       1.00
      H147          H  0.9662414  0.2147951  0.3650170    0.00000       Uiso       1.00
      H148          H  0.9435102  0.2088138  0.4149476    0.00000       Uiso       1.00
      H149          H  0.9232777  0.2557130  0.3812529    0.00000       Uiso       1.00
      C265          C  0.0801757  0.2107430  0.1844978    0.00000       Uiso       1.00
      C266          C  0.1086931  0.2294263  0.1689622    0.00000       Uiso       1.00
      C267          C  0.0707920  0.1822775  0.1838118    0.00000       Uiso       1.00
      C268          C  0.0897235  0.1726324  0.1680668    0.00000       Uiso       1.00
      C269          C  0.1182932  0.1913680  0.1527793    0.00000       Uiso       1.00
      C270          C  0.1276703  0.2198204  0.1533087    0.00000       Uiso       1.00
      H150          H  0.1164443  0.2514073  0.1687405    0.00000       Uiso       1.00
      H151          H  0.1496249  0.2346573  0.1415410    0.00000       Uiso       1.00
      H152          H  0.0487983  0.1675255  0.1954684    0.00000       Uiso       1.00
       F21          F  0.1044244  0.4365599  0.2529446    0.00000       Uiso       1.00
       F22          F  0.0792106  0.1426109  0.1678444    0.00000       Uiso       1.00
       F23          F  0.8955746  0.2529246  0.4365798    0.00000       Uiso       1.00
       F24          F  0.9207886  0.1678246  0.1426308    0.00000       Uiso       1.00
      C271          C  0.9991035  0.2936186  0.2525699    0.00000       Uiso       1.00
      C272          C  0.0143181  0.2815157  0.2464435    0.00000       Uiso       1.00
      C273          C  0.0422036  0.2995654  0.2393779    0.00000       Uiso       1.00
      C274          C  0.0550006  0.3277500  0.2353825    0.00000       Uiso       1.00
      C275          C  0.0401700  0.3391956  0.2393305    0.00000       Uiso       1.00
      C276          C  0.0119200  0.3218122  0.2484046    0.00000       Uiso       1.00
      H153          H  0.9772058  0.2810112  0.2601249    0.00000       Uiso       1.00
      H154          H  0.9996080  0.3301540  0.2528372    0.00000       Uiso       1.00
      H155          H  0.0543437  0.2919577  0.2368112    0.00000       Uiso       1.00
      H156          H  0.0766680  0.3406204  0.2289877    0.00000       Uiso       1.00
      C277          C  0.9792253  0.2327625  0.2392382    0.00000       Uiso       1.00
      C278          C  0.9580349  0.2054457  0.2483258    0.00000       Uiso       1.00
      C279          C  0.9819956  0.2425982  0.2184181    0.00000       Uiso       1.00
      C280          C  0.9626128  0.2272107  0.2096165    0.00000       Uiso       1.00
      C281          C  0.9402843  0.2009344  0.2204992    0.00000       Uiso       1.00
      C282          C  0.9384917  0.1900679  0.2396753    0.00000       Uiso       1.00
      H157          H  0.9562993  0.1961553  0.2626686    0.00000       Uiso       1.00
      H158          H  0.9222711  0.1694148  0.2475541    0.00000       Uiso       1.00
      H159          H  0.9991770  0.2623461  0.2088446    0.00000       Uiso       1.00
      H160          H  0.9650151  0.2360076  0.1943438    0.00000       Uiso       1.00
      C283          C  0.9856811  0.2464236  0.2815356    0.00000       Uiso       1.00
      C284          C  0.0008956  0.2525499  0.2936385    0.00000       Uiso       1.00
      C285          C  0.9577956  0.2393581  0.2995853    0.00000       Uiso       1.00
      C286          C  0.9449985  0.2353626  0.3277699    0.00000       Uiso       1.00
      C287          C  0.9598291  0.2393106  0.3392155    0.00000       Uiso       1.00
      C288          C  0.9880792  0.2483846  0.3218321    0.00000       Uiso       1.00
      H161          H  0.0227934  0.2601048  0.2810311    0.00000       Uiso       1.00
      H162          H  0.0003910  0.2528169  0.3301738    0.00000       Uiso       1.00
      H163          H  0.9456554  0.2367914  0.2919776    0.00000       Uiso       1.00
      H164          H  0.9233311  0.2289678  0.3406402    0.00000       Uiso       1.00
      C289          C  0.0207738  0.2392182  0.2327824    0.00000       Uiso       1.00
      C290          C  0.0419642  0.2483058  0.2054656    0.00000       Uiso       1.00
      C291          C  0.0180035  0.2183983  0.2426181    0.00000       Uiso       1.00
      C292          C  0.0373865  0.2095967  0.2272306    0.00000       Uiso       1.00
      C293          C  0.0597149  0.2204794  0.2009543    0.00000       Uiso       1.00
      C294          C  0.0615074  0.2396553  0.1900877    0.00000       Uiso       1.00
      H165          H  0.0436997  0.2626486  0.1961751    0.00000       Uiso       1.00
      H166          H  0.0777279  0.2475341  0.1694346    0.00000       Uiso       1.00
      H167          H  0.0008223  0.2088248  0.2623660    0.00000       Uiso       1.00
      H168          H  0.0349842  0.1943240  0.2360276    0.00000       Uiso       1.00
      C295          C  0.6089467  0.5699273  0.6389486    0.00000       Uiso       1.00
      C296          C  0.6149908  0.5638530  0.6542611    0.00000       Uiso       1.00
      C297          C  0.6067768  0.5367991  0.6572037    0.00000       Uiso       1.00
      C298          C  0.6119789  0.5311521  0.6736283    0.00000       Uiso       1.00
      C299          C  0.6239105  0.5521413  0.6889660    0.00000       Uiso       1.00
      C300          C  0.6317327  0.5791973  0.6860398    0.00000       Uiso       1.00
      C301          C  0.6294885  0.5857689  0.6672639    0.00000       Uiso       1.00
        O1          O  0.5939484  0.5509340  0.6259939    0.00000       Uiso       1.00
      H169          H  0.6380792  0.5949858  0.6996412    0.00000       Uiso       1.00
      C302          C  0.7356827  0.7519837  0.7113594    0.00000       Uiso       1.00
      C303          C  0.7203848  0.7306474  0.6992467    0.00000       Uiso       1.00
      C304          C  0.7174787  0.7360358  0.6804618    0.00000       Uiso       1.00
      C305          C  0.7011966  0.7144254  0.6694050    0.00000       Uiso       1.00
      C306          C  0.6859812  0.6870802  0.6782596    0.00000       Uiso       1.00
      C307          C  0.6888131  0.6821374  0.6975570    0.00000       Uiso       1.00
      C308          C  0.7074453  0.7031465  0.7065573    0.00000       Uiso       1.00
        O2          O  0.7486600  0.7799010  0.7072021    0.00000       Uiso       1.00
      H170          H  0.7280971  0.7570617  0.6742503    0.00000       Uiso       1.00
      H171          H  0.7005203  0.7194155  0.6540962    0.00000       Uiso       1.00
      H172          H  0.6752824  0.6621211  0.7068741    0.00000       Uiso       1.00
      C309          C  0.6633246  0.5528502  0.7665565    0.00000       Uiso       1.00
      C310          C  0.6754287  0.5802537  0.7605299    0.00000       Uiso       1.00
      C311          C  0.6941961  0.6019387  0.7688500    0.00000       Uiso       1.00
      C312          C  0.7052523  0.6292838  0.7635426    0.00000       Uiso       1.00
      C313          C  0.6964141  0.6356508  0.7513978    0.00000       Uiso       1.00
      C314          C  0.6771450  0.6135183  0.7435851    0.00000       Uiso       1.00
      C315          C  0.6681547  0.5858858  0.7459520    0.00000       Uiso       1.00
        O3          O  0.6676028  0.5441163  0.7814466    0.00000       Uiso       1.00
      H173          H  0.7003773  0.5974963  0.7792630    0.00000       Uiso       1.00
      H174          H  0.7205395  0.6452499  0.7692387    0.00000       Uiso       1.00
      H175          H  0.6678134  0.6176857  0.7370802    0.00000       Uiso       1.00
      C316          C  0.6447785  0.5314865  0.7584975    0.00000       Uiso       1.00
      C317          C  0.6380481  0.5361990  0.7429613    0.00000       Uiso       1.00
      C318          C  0.6192367  0.5145548  0.7346479    0.00000       Uiso       1.00
      C319          C  0.6137925  0.5196936  0.7181271    0.00000       Uiso       1.00
      C320          C  0.6283361  0.5463321  0.7080007    0.00000       Uiso       1.00
      C321          C  0.6474688  0.5678134  0.7162617    0.00000       Uiso       1.00
      C322          C  0.6509743  0.5636024  0.7353404    0.00000       Uiso       1.00
        O4          O  0.6349853  0.5059925  0.7666650    0.00000       Uiso       1.00
      H176          H  0.6609064  0.5876055  0.7065520    0.00000       Uiso       1.00
      C323          C  0.7384849  0.7467086  0.7298818    0.00000       Uiso       1.00
      C324          C  0.7270355  0.7197531  0.7366251    0.00000       Uiso       1.00
      C325          C  0.7299379  0.7143959  0.7554320    0.00000       Uiso       1.00
      C326          C  0.7192053  0.6872761  0.7610908    0.00000       Uiso       1.00
      C327          C  0.7069181  0.6649650  0.7467151    0.00000       Uiso       1.00
      C328          C  0.7046326  0.6708308  0.7274901    0.00000       Uiso       1.00
      C329          C  0.7124976  0.6976352  0.7237923    0.00000       Uiso       1.00
        O5          O  0.7540990  0.7704908  0.7398225    0.00000       Uiso       1.00
      H177          H  0.7403463  0.7313472  0.7658726    0.00000       Uiso       1.00
      H178          H  0.7208370  0.6840577  0.7766180    0.00000       Uiso       1.00
      H179          H  0.6981460  0.6546963  0.7141509    0.00000       Uiso       1.00
      C330          C  0.6170160  0.5965545  0.6361945    0.00000       Uiso       1.00
      C331          C  0.6325168  0.6188006  0.6476389    0.00000       Uiso       1.00
      C332          C  0.6407691  0.6458638  0.6447307    0.00000       Uiso       1.00
      C333          C  0.6571575  0.6679237  0.6554550    0.00000       Uiso       1.00
      C334          C  0.6671779  0.6635802  0.6677523    0.00000       Uiso       1.00
      C335          C  0.6590145  0.6362014  0.6700551    0.00000       Uiso       1.00
      C336          C  0.6400788  0.6135612  0.6621851    0.00000       Uiso       1.00
        O6          O  0.6088053  0.5984151  0.6206694    0.00000       Uiso       1.00
      H180          H  0.6342088  0.6497233  0.6343166    0.00000       Uiso       1.00
      H181          H  0.6619990  0.6882891  0.6538063    0.00000       Uiso       1.00
      H182          H  0.6686309  0.6324708  0.6765498    0.00000       Uiso       1.00
        B1          B  0.5940650  0.5692386  0.6144515    0.00000       Uiso       1.00
        B2          B  0.7603561  0.7914353  0.7253314    0.00000       Uiso       1.00
        B3          B  0.6495342  0.5142860  0.7812365    0.00000       Uiso       1.00
      H183          H  0.5965044  0.5199983  0.6466224    0.00000       Uiso       1.00
      H184          H  0.6062658  0.5101672  0.6743603    0.00000       Uiso       1.00
      H185          H  0.6085410  0.4936461  0.7411109    0.00000       Uiso       1.00
      H186          H  0.5983217  0.5025290  0.7131993    0.00000       Uiso       1.00
      C337          C  0.3910521  0.6389481  0.5699278    0.00000       Uiso       1.00
      C338          C  0.3850079  0.6542606  0.5638536    0.00000       Uiso       1.00
      C339          C  0.3932221  0.6572033  0.5367996    0.00000       Uiso       1.00
      C340          C  0.3880199  0.6736279  0.5311526    0.00000       Uiso       1.00
      C341          C  0.3760883  0.6889656  0.5521419    0.00000       Uiso       1.00
      C342          C  0.3682661  0.6860393  0.5791978    0.00000       Uiso       1.00
      C343          C  0.3705103  0.6672634  0.5857694    0.00000       Uiso       1.00
        O7          O  0.4060505  0.6259934  0.5509346    0.00000       Uiso       1.00
      H187          H  0.3619196  0.6996406  0.5949864    0.00000       Uiso       1.00
      C344          C  0.2643161  0.7113588  0.7519842    0.00000       Uiso       1.00
      C345          C  0.2796139  0.6992460  0.7306479    0.00000       Uiso       1.00
      C346          C  0.2825201  0.6804611  0.7360364    0.00000       Uiso       1.00
      C347          C  0.2988021  0.6694043  0.7144260    0.00000       Uiso       1.00
      C348          C  0.3140176  0.6782590  0.6870807    0.00000       Uiso       1.00
      C349          C  0.3111857  0.6975564  0.6821379    0.00000       Uiso       1.00
      C350          C  0.2925535  0.7065567  0.7031471    0.00000       Uiso       1.00
        O8          O  0.2513387  0.7072015  0.7799015    0.00000       Uiso       1.00
      H188          H  0.2719016  0.6742497  0.7570622    0.00000       Uiso       1.00
      H189          H  0.2994784  0.6540955  0.7194161    0.00000       Uiso       1.00
      H190          H  0.3247164  0.7068736  0.6621217    0.00000       Uiso       1.00
      C351          C  0.3366742  0.7665560  0.5528508    0.00000       Uiso       1.00
      C352          C  0.3245700  0.7605295  0.5802543    0.00000       Uiso       1.00
      C353          C  0.3058026  0.7688494  0.6019393    0.00000       Uiso       1.00
      C354          C  0.2947465  0.7635420  0.6292844    0.00000       Uiso       1.00
      C355          C  0.3035847  0.7513973  0.6356515    0.00000       Uiso       1.00
      C356          C  0.3228537  0.7435845  0.6135189    0.00000       Uiso       1.00
      C357          C  0.3318441  0.7459515  0.5858865    0.00000       Uiso       1.00
        O9          O  0.3323960  0.7814461  0.5441169    0.00000       Uiso       1.00
      H191          H  0.2996214  0.7792625  0.5974969    0.00000       Uiso       1.00
      H192          H  0.2794592  0.7692381  0.6452505    0.00000       Uiso       1.00
      H193          H  0.3321854  0.7370797  0.6176863    0.00000       Uiso       1.00
      C358          C  0.3552203  0.7584971  0.5314871    0.00000       Uiso       1.00
      C359          C  0.3619507  0.7429609  0.5361996    0.00000       Uiso       1.00
      C360          C  0.3807621  0.7346475  0.5145554    0.00000       Uiso       1.00
      C361          C  0.3862063  0.7181267  0.5196941    0.00000       Uiso       1.00
      C362          C  0.3716627  0.7080002  0.5463327    0.00000       Uiso       1.00
      C363          C  0.3525300  0.7162612  0.5678140    0.00000       Uiso       1.00
      C364          C  0.3490246  0.7353399  0.5636030    0.00000       Uiso       1.00
       O10          O  0.3650135  0.7666646  0.5059931    0.00000       Uiso       1.00
      H194          H  0.3390924  0.7065514  0.5876060    0.00000       Uiso       1.00
      C365          C  0.2615138  0.7298812  0.7467092    0.00000       Uiso       1.00
      C366          C  0.2729632  0.7366245  0.7197537    0.00000       Uiso       1.00
      C367          C  0.2700609  0.7554314  0.7143965    0.00000       Uiso       1.00
      C368          C  0.2807934  0.7610902  0.6872767    0.00000       Uiso       1.00
      C369          C  0.2930807  0.7467145  0.6649657    0.00000       Uiso       1.00
      C370          C  0.2953661  0.7274895  0.6708313    0.00000       Uiso       1.00
      C371          C  0.2875012  0.7237917  0.6976358    0.00000       Uiso       1.00
       O11          O  0.2458996  0.7398219  0.7704914    0.00000       Uiso       1.00
      H195          H  0.2596524  0.7658719  0.7313478    0.00000       Uiso       1.00
      H196          H  0.2791617  0.7766174  0.6840584    0.00000       Uiso       1.00
      H197          H  0.3018528  0.7141503  0.6546969    0.00000       Uiso       1.00
      C372          C  0.3829829  0.6361941  0.5965551    0.00000       Uiso       1.00
      C373          C  0.3674820  0.6476384  0.6188012    0.00000       Uiso       1.00
      C374          C  0.3592297  0.6447302  0.6458643    0.00000       Uiso       1.00
      C375          C  0.3428412  0.6554545  0.6679242    0.00000       Uiso       1.00
      C376          C  0.3328209  0.6677517  0.6635807    0.00000       Uiso       1.00
      C377          C  0.3409843  0.6700546  0.6362019    0.00000       Uiso       1.00
      C378          C  0.3599201  0.6621846  0.6135617    0.00000       Uiso       1.00
       O12          O  0.3911935  0.6206689  0.5984157    0.00000       Uiso       1.00
      H198          H  0.3657900  0.6343160  0.6497238    0.00000       Uiso       1.00
      H199          H  0.3379997  0.6538057  0.6882896    0.00000       Uiso       1.00
      H200          H  0.3313679  0.6765493  0.6324714    0.00000       Uiso       1.00
        B4          B  0.4059338  0.6144510  0.5692391    0.00000       Uiso       1.00
        B5          B  0.2396426  0.7253307  0.7914359    0.00000       Uiso       1.00
        B6          B  0.3504646  0.7812360  0.5142866    0.00000       Uiso       1.00
      H201          H  0.4034944  0.6466219  0.5199988    0.00000       Uiso       1.00
      H202          H  0.3937330  0.6743599  0.5101678    0.00000       Uiso       1.00
      H203          H  0.3914578  0.7411104  0.4936467    0.00000       Uiso       1.00
      H204          H  0.4016772  0.7131988  0.5025296    0.00000       Uiso       1.00
      C379          C  0.1230296  0.0700833  0.6078458    0.00000       Uiso       1.00
      C380          C  0.1443668  0.0640059  0.5906686    0.00000       Uiso       1.00
      C381          C  0.1390199  0.0369549  0.5825296    0.00000       Uiso       1.00
      C382          C  0.1606295  0.0312167  0.5664225    0.00000       Uiso       1.00
      C383          C  0.1878979  0.0521643  0.5595295    0.00000       Uiso       1.00
      C384          C  0.1928102  0.0792145  0.5682144    0.00000       Uiso       1.00
      C385          C  0.1718322  0.0858441  0.5818425    0.00000       Uiso       1.00
       O13          O  0.0951371  0.0510435  0.6188781    0.00000       Uiso       1.00
      H205          H  0.1180231  0.0203604  0.5886239    0.00000       Uiso       1.00
      H206          H  0.1557057  0.0102649  0.5596805    0.00000       Uiso       1.00
      H207          H  0.2127507  0.0949893  0.5658176    0.00000       Uiso       1.00
      C386          C  0.3220513  0.2519678  0.5357915    0.00000       Uiso       1.00
      C387          C  0.2946368  0.2306306  0.5460295    0.00000       Uiso       1.00
      C388          C  0.2729333  0.2359781  0.5595950    0.00000       Uiso       1.00
      C389          C  0.2455857  0.2143686  0.5708361    0.00000       Uiso       1.00
      C390          C  0.2392644  0.1870998  0.5702639    0.00000       Uiso       1.00
      C391          C  0.2614019  0.1821872  0.5568106    0.00000       Uiso       1.00
      C392          C  0.2890094  0.2031650  0.5428307    0.00000       Uiso       1.00
       O14          O  0.3309042  0.2798605  0.5379708    0.00000       Uiso       1.00
      H208          H  0.2773367  0.2569756  0.5612869    0.00000       Uiso       1.00
      H209          H  0.2295580  0.2192928  0.5801228    0.00000       Uiso       1.00
      H210          H  0.2572360  0.1622465  0.5585797    0.00000       Uiso       1.00
      C393          C  0.3049132  0.0529438  0.4808746    0.00000       Uiso       1.00
      C394          C  0.3109909  0.0803588  0.4850352    0.00000       Uiso       1.00
      C395          C  0.3380417  0.1020625  0.4715492    0.00000       Uiso       1.00
      C396          C  0.3437798  0.1294105  0.4770522    0.00000       Uiso       1.00
      C397          C  0.3228326  0.1357319  0.4974282    0.00000       Uiso       1.00
      C398          C  0.2957827  0.1135943  0.5110255    0.00000       Uiso       1.00
      C399          C  0.2891530  0.0859865  0.5036751    0.00000       Uiso       1.00
       O15          O  0.3239525  0.0440903  0.4640136    0.00000       Uiso       1.00
      H211          H  0.3546362  0.0976600  0.4566463    0.00000       Uiso       1.00
      H212          H  0.3647313  0.1454384  0.4653867    0.00000       Uiso       1.00
      H213          H  0.2800084  0.1177607  0.5285698    0.00000       Uiso       1.00
      C400          C  0.2783928  0.0316706  0.4945793    0.00000       Uiso       1.00
      C401          C  0.2561397  0.0363689  0.5119725    0.00000       Uiso       1.00
      C402          C  0.2290782  0.0146790  0.5254488    0.00000       Uiso       1.00
      C403          C  0.2070160  0.0197378  0.5416692    0.00000       Uiso       1.00
      C404          C  0.2113749  0.0463619  0.5433969    0.00000       Uiso       1.00
      C405          C  0.2387481  0.0678708  0.5294113    0.00000       Uiso       1.00
      C406          C  0.2613740  0.0637120  0.5154639    0.00000       Uiso       1.00
       O16          O  0.2766670  0.0061562  0.4883328    0.00000       Uiso       1.00
      H214          H  0.2251924  0.9938464  0.5234106    0.00000       Uiso       1.00
      H215          H  0.1866157  0.0026007  0.5525687    0.00000       Uiso       1.00
      H216          H  0.2424581  0.0876755  0.5279492    0.00000       Uiso       1.00
      C407          C  0.3433246  0.2467207  0.5229751    0.00000       Uiso       1.00
      C408          C  0.3386268  0.2197692  0.5181144    0.00000       Uiso       1.00
      C409          C  0.3603170  0.2143978  0.5045285    0.00000       Uiso       1.00
      C410          C  0.3552586  0.1872767  0.4986862    0.00000       Uiso       1.00
      C411          C  0.3286347  0.1650115  0.5047730    0.00000       Uiso       1.00
      C412          C  0.3071255  0.1708755  0.5181609    0.00000       Uiso       1.00
      C413          C  0.3112840  0.1976604  0.5268400    0.00000       Uiso       1.00
       O17          O  0.3688385  0.2705092  0.5150033    0.00000       Uiso       1.00
      H217          H  0.3811490  0.2313440  0.4986038    0.00000       Uiso       1.00
      H218          H  0.3723960  0.1840138  0.4891848    0.00000       Uiso       1.00
      H219          H  0.2873211  0.1547809  0.5204086    0.00000       Uiso       1.00
      C414          C  0.1282765  0.0966040  0.6163037    0.00000       Uiso       1.00
      C415          C  0.1552279  0.1188577  0.6067451    0.00000       Uiso       1.00
      C416          C  0.1605995  0.1459196  0.6148501    0.00000       Uiso       1.00
      C417          C  0.1877205  0.1679820  0.6039490    0.00000       Uiso       1.00
      C418          C  0.2099852  0.1636228  0.5834110    0.00000       Uiso       1.00
      C419          C  0.2041209  0.1362494  0.5752892    0.00000       Uiso       1.00
      C420          C  0.1773365  0.1136233  0.5881270    0.00000       Uiso       1.00
       O18          O  0.1044878  0.0983293  0.6338466    0.00000       Uiso       1.00
      H220          H  0.1436547  0.1498072  0.6297581    0.00000       Uiso       1.00
      H221          H  0.1909841  0.1883827  0.6115853    0.00000       Uiso       1.00
      H222          H  0.2202152  0.1325392  0.5577319    0.00000       Uiso       1.00
        B7          B  0.0835641  0.0692410  0.6353421    0.00000       Uiso       1.00
        B8          B  0.3606743  0.2914332  0.5246635    0.00000       Uiso       1.00
        B9          B  0.3057550  0.0143200  0.4689040    0.00000       Uiso       1.00
      C421          C  0.8769694  0.6078457  0.0700838    0.00000       Uiso       1.00
      C422          C  0.8556322  0.5906685  0.0640064    0.00000       Uiso       1.00
      C423          C  0.8609792  0.5825296  0.0369554    0.00000       Uiso       1.00
      C424          C  0.8393697  0.5664225  0.0312172    0.00000       Uiso       1.00
      C425          C  0.8121012  0.5595295  0.0521647    0.00000       Uiso       1.00
      C426          C  0.8071889  0.5682144  0.0792150    0.00000       Uiso       1.00
      C427          C  0.8281669  0.5818424  0.0858446    0.00000       Uiso       1.00
       O19          O  0.9048620  0.6188781  0.0510441    0.00000       Uiso       1.00
      H223          H  0.8819760  0.5886239  0.0203609    0.00000       Uiso       1.00
      H224          H  0.8442934  0.5596805  0.0102653    0.00000       Uiso       1.00
      H225          H  0.7872484  0.5658175  0.0949897    0.00000       Uiso       1.00
      C428          C  0.6779477  0.5357913  0.2519683    0.00000       Uiso       1.00
      C429          C  0.7053622  0.5460293  0.2306311    0.00000       Uiso       1.00
      C430          C  0.7270657  0.5595949  0.2359785    0.00000       Uiso       1.00
      C431          C  0.7544134  0.5708360  0.2143691    0.00000       Uiso       1.00
      C432          C  0.7607346  0.5702637  0.1871003    0.00000       Uiso       1.00
      C433          C  0.7385971  0.5568104  0.1821876    0.00000       Uiso       1.00
      C434          C  0.7109897  0.5428305  0.2031654    0.00000       Uiso       1.00
       O20          O  0.6690949  0.5379705  0.2798609    0.00000       Uiso       1.00
      H226          H  0.7226623  0.5612867  0.2569761    0.00000       Uiso       1.00
      H227          H  0.7704410  0.5801226  0.2192933    0.00000       Uiso       1.00
      H228          H  0.7427631  0.5585796  0.1622470    0.00000       Uiso       1.00
      C435          C  0.6950859  0.4808745  0.0529442    0.00000       Uiso       1.00
      C436          C  0.6890082  0.4850351  0.0803592    0.00000       Uiso       1.00
      C437          C  0.6619574  0.4715492  0.1020629    0.00000       Uiso       1.00
      C438          C  0.6562193  0.4770522  0.1294109    0.00000       Uiso       1.00
      C439          C  0.6771665  0.4974281  0.1357323    0.00000       Uiso       1.00
      C440          C  0.7042164  0.5110254  0.1135947    0.00000       Uiso       1.00
      C441          C  0.7108461  0.5036750  0.0859869    0.00000       Uiso       1.00
       O21          O  0.6760467  0.4640136  0.0440907    0.00000       Uiso       1.00
      H229          H  0.6453630  0.4566462  0.0976604    0.00000       Uiso       1.00
      H230          H  0.6352677  0.4653866  0.1454388    0.00000       Uiso       1.00
      H231          H  0.7199906  0.5285696  0.1177611    0.00000       Uiso       1.00
      C442          C  0.7216063  0.4945792  0.0316710    0.00000       Uiso       1.00
      C443          C  0.7438595  0.5119725  0.0363693    0.00000       Uiso       1.00
      C444          C  0.7709209  0.5254488  0.0146794    0.00000       Uiso       1.00
      C445          C  0.7929832  0.5416693  0.0197382    0.00000       Uiso       1.00
      C446          C  0.7886242  0.5433969  0.0463623    0.00000       Uiso       1.00
      C447          C  0.7612511  0.5294113  0.0678713    0.00000       Uiso       1.00
      C448          C  0.7386251  0.5154638  0.0637124    0.00000       Uiso       1.00
       O22          O  0.7233321  0.4883327  0.0061566    0.00000       Uiso       1.00
      H232          H  0.7748062  0.5234098  0.9938469    0.00000       Uiso       1.00
      H233          H  0.8133834  0.5525687  0.0026012    0.00000       Uiso       1.00
      H234          H  0.7575409  0.5279491  0.0876759    0.00000       Uiso       1.00
      C449          C  0.6566744  0.5229750  0.2467212    0.00000       Uiso       1.00
      C450          C  0.6613722  0.5181142  0.2197696    0.00000       Uiso       1.00
      C451          C  0.6396821  0.5045284  0.2143982    0.00000       Uiso       1.00
      C452          C  0.6447405  0.4986860  0.1872771    0.00000       Uiso       1.00
      C453          C  0.6713644  0.5047728  0.1650119    0.00000       Uiso       1.00
      C454          C  0.6928735  0.5181607  0.1708760    0.00000       Uiso       1.00
      C455          C  0.6887151  0.5268398  0.1976608    0.00000       Uiso       1.00
       O23          O  0.6311604  0.5150031  0.2705096    0.00000       Uiso       1.00
      H235          H  0.6188501  0.4986036  0.2313445    0.00000       Uiso       1.00
      H236          H  0.6276032  0.4891846  0.1840142    0.00000       Uiso       1.00
      H237          H  0.7126780  0.5204085  0.1547813    0.00000       Uiso       1.00
      C456          C  0.8717225  0.6163036  0.0966045    0.00000       Uiso       1.00
      C457          C  0.8447711  0.6067449  0.1188583    0.00000       Uiso       1.00
      C458          C  0.8393995  0.6148500  0.1459202    0.00000       Uiso       1.00
      C459          C  0.8122786  0.6039489  0.1679825    0.00000       Uiso       1.00
      C460          C  0.7900138  0.5834109  0.1636233    0.00000       Uiso       1.00
      C461          C  0.7958782  0.5752890  0.1362499    0.00000       Uiso       1.00
      C462          C  0.8226627  0.5881269  0.1136238    0.00000       Uiso       1.00
       O24          O  0.8955112  0.6338465  0.0983298    0.00000       Uiso       1.00
      H238          H  0.8563443  0.6297579  0.1498077    0.00000       Uiso       1.00
      H239          H  0.8090149  0.6115851  0.1883832    0.00000       Uiso       1.00
      H240          H  0.7797838  0.5577318  0.1325397    0.00000       Uiso       1.00
       B10          B  0.9164349  0.6353420  0.0692415    0.00000       Uiso       1.00
       B11          B  0.6393248  0.5246633  0.2914337    0.00000       Uiso       1.00
       B12          B  0.6942441  0.4689040  0.0143204    0.00000       Uiso       1.00
      C463          C  0.3771109  0.1970236  0.9839377    0.00000       Uiso       1.00
      C464          C  0.3557548  0.1695922  0.9899812    0.00000       Uiso       1.00
      C465          C  0.3610266  0.1478098  0.9817662    0.00000       Uiso       1.00
      C466          C  0.3394003  0.1205356  0.9869677    0.00000       Uiso       1.00
      C467          C  0.3121312  0.1142550  0.9988995    0.00000       Uiso       1.00
      C468          C  0.3072360  0.1364157  0.0067230    0.00000       Uiso       1.00
      C469          C  0.3282557  0.1640079  0.0044794    0.00000       Uiso       1.00
       O25          O  0.4050638  0.2059840  0.9689391    0.00000       Uiso       1.00
      H241          H  0.2872882  0.1322560  0.0130697    0.00000       Uiso       1.00
      C470          C  0.1779656  0.1799300  0.1106771    0.00000       Uiso       1.00
      C471          C  0.2053761  0.1860048  0.0953790    0.00000       Uiso       1.00
      C472          C  0.2270667  0.2130848  0.0924734    0.00000       Uiso       1.00
      C473          C  0.2544054  0.2188138  0.0761911    0.00000       Uiso       1.00
      C474          C  0.2607667  0.1978295  0.0609747    0.00000       Uiso       1.00
      C475          C  0.2386378  0.1707569  0.0638060    0.00000       Uiso       1.00
      C476          C  0.2110054  0.1641330  0.0824385    0.00000       Uiso       1.00
       O26          O  0.1691452  0.1990270  0.1236554    0.00000       Uiso       1.00
      H242          H  0.2226594  0.2297035  0.1030926    0.00000       Uiso       1.00
      H243          H  0.2703902  0.2397894  0.0755152    0.00000       Uiso       1.00
      H244          H  0.2428517  0.1549543  0.0502746    0.00000       Uiso       1.00
      C477          C  0.1951308  0.9979576  0.0383117    0.00000       Uiso       1.00
      C478          C  0.1890520  0.0192836  0.0504168    0.00000       Uiso       1.00
      C479          C  0.1619647  0.0138806  0.0691845    0.00000       Uiso       1.00
      C480          C  0.1562155  0.0354769  0.0802416    0.00000       Uiso       1.00
      C481          C  0.1771980  0.0628273  0.0714040    0.00000       Uiso       1.00
      C482          C  0.2042797  0.0677771  0.0521347    0.00000       Uiso       1.00
      C483          C  0.2109035  0.0467681  0.0431434    0.00000       Uiso       1.00
       O27          O  0.1759630  0.9700549  0.0425892    0.00000       Uiso       1.00
      H245          H  0.1453716  0.9928433  0.0753652    0.00000       Uiso       1.00
      H246          H  0.1352323  0.0304592  0.0955291    0.00000       Uiso       1.00
      H247          H  0.2201158  0.0877813  0.0428035    0.00000       Uiso       1.00
      C484          C  0.2217350  0.0031997  0.0197653    0.00000       Uiso       1.00
      C485          C  0.2440011  0.0301792  0.0130355    0.00000       Uiso       1.00
      C486          C  0.2711245  0.0356596  0.9942236    0.00000       Uiso       1.00
      C487          C  0.2930890  0.0627638  0.9887800    0.00000       Uiso       1.00
      C488          C  0.2886728  0.0849859  0.0033247    0.00000       Uiso       1.00
      C489          C  0.2612791  0.0790729  0.0224578    0.00000       Uiso       1.00
      C490          C  0.2386954  0.0522774  0.0259626    0.00000       Uiso       1.00
       O28          O  0.2233619  0.9793312  0.0099712    0.00000       Uiso       1.00
      H248          H  0.2575510  0.0951371  0.0358961    0.00000       Uiso       1.00
      C491          C  0.1566415  0.1533298  0.1134788    0.00000       Uiso       1.00
      C492          C  0.1613481  0.1310806  0.1020284    0.00000       Uiso       1.00
      C493          C  0.1396392  0.1040137  0.1049302    0.00000       Uiso       1.00
      C494          C  0.1447134  0.0819677  0.0941967    0.00000       Uiso       1.00
      C495          C  0.1713763  0.0863201  0.0819091    0.00000       Uiso       1.00
      C496          C  0.1928862  0.1136967  0.0796242    0.00000       Uiso       1.00
      C497          C  0.1887187  0.1363340  0.0874902    0.00000       Uiso       1.00
       O29          O  0.1310867  0.1515567  0.1290933    0.00000       Uiso       1.00
      H249          H  0.1187903  0.1001156  0.1153388    0.00000       Uiso       1.00
      H250          H  0.1275549  0.0615901  0.0958279    0.00000       Uiso       1.00
      H251          H  0.2127120  0.1173885  0.0731374    0.00000       Uiso       1.00
      C498          C  0.3717954  0.2183356  0.9920079    0.00000       Uiso       1.00
      C499          C  0.3448515  0.2136367  0.0075092    0.00000       Uiso       1.00
      C500          C  0.3395070  0.2353556  0.0157625    0.00000       Uiso       1.00
      C501          C  0.3123943  0.2303023  0.0321513    0.00000       Uiso       1.00
      C502          C  0.2900772  0.2036407  0.0421710    0.00000       Uiso       1.00
      C503          C  0.2959381  0.1821225  0.0340067    0.00000       Uiso       1.00
      C504          C  0.3227438  0.1862886  0.0150706    0.00000       Uiso       1.00
       O30          O  0.3955306  0.2439324  0.9837977    0.00000       Uiso       1.00
      H252          H  0.3564811  0.2561899  0.0092026    0.00000       Uiso       1.00
      H253          H  0.3092013  0.2474749  0.0369935    0.00000       Uiso       1.00
      H254          H  0.2798274  0.1622806  0.0436227    0.00000       Uiso       1.00
       B13          B  0.4164891  0.2357145  0.9690567    0.00000       Uiso       1.00
       B14          B  0.1393202  0.1807355  0.1353513    0.00000       Uiso       1.00
       B15          B  0.1942419  0.9585036  0.0245199    0.00000       Uiso       1.00
      H255          H  0.3818803  0.1518632  0.9714935    0.00000       Uiso       1.00
      H256          H  0.3443818  0.1045321  0.9812539    0.00000       Uiso       1.00
      H257          H  0.2753575  0.0189836  0.9835272    0.00000       Uiso       1.00
      H258          H  0.3134876  0.0659984  0.9733089    0.00000       Uiso       1.00
      C505          C  0.8941307  0.2142099  0.4980113    0.00000       Uiso       1.00
      C506          C  0.8899709  0.2039723  0.5193482    0.00000       Uiso       1.00
      C507          C  0.9034570  0.1904075  0.5140004    0.00000       Uiso       1.00
      C508          C  0.8979548  0.1791667  0.5356097    0.00000       Uiso       1.00
      C509          C  0.8775793  0.1797384  0.5628785    0.00000       Uiso       1.00
      C510          C  0.8639818  0.1931912  0.5677915    0.00000       Uiso       1.00
      C511          C  0.8713316  0.2071709  0.5468140    0.00000       Uiso       1.00
       O31          O  0.9109910  0.2120306  0.4701183    0.00000       Uiso       1.00
      H259          H  0.9183595  0.1887157  0.4930033    0.00000       Uiso       1.00
      H260          H  0.9096206  0.1698808  0.5306854    0.00000       Uiso       1.00
      H261          H  0.8464382  0.1914219  0.5877324    0.00000       Uiso       1.00
      C512          C  0.7671623  0.2691244  0.6970375    0.00000       Uiso       1.00
      C513          C  0.7843388  0.2649640  0.6696225    0.00000       Uiso       1.00
      C514          C  0.7924765  0.2784496  0.6479194    0.00000       Uiso       1.00
      C515          C  0.8085833  0.2729471  0.6205711    0.00000       Uiso       1.00
      C516          C  0.8154771  0.2525718  0.6142491    0.00000       Uiso       1.00
      C517          C  0.8067931  0.2389748  0.6363862    0.00000       Uiso       1.00
      C518          C  0.7931654  0.2463247  0.6639942    0.00000       Uiso       1.00
       O32          O  0.7561298  0.2859848  0.7058911    0.00000       Uiso       1.00
      H262          H  0.7863810  0.2933518  0.6523235    0.00000       Uiso       1.00
      H263          H  0.8153241  0.2846125  0.6045439    0.00000       Uiso       1.00
      H264          H  0.8091903  0.2214311  0.6322195    0.00000       Uiso       1.00
      C519          C  0.8392195  0.1421567  0.6798930    0.00000       Uiso       1.00
      C520          C  0.8289810  0.1593332  0.6859716    0.00000       Uiso       1.00
      C521          C  0.8154159  0.1674718  0.7130229    0.00000       Uiso       1.00
      C522          C  0.8041745  0.1835784  0.7187619    0.00000       Uiso       1.00
      C523          C  0.8047457  0.1904712  0.6978149    0.00000       Uiso       1.00
      C524          C  0.8181984  0.1817863  0.6707645    0.00000       Uiso       1.00
      C525          C  0.8321788  0.1681590  0.6641340    0.00000       Uiso       1.00
       O33          O  0.8370415  0.1311249  0.6989319    0.00000       Uiso       1.00
      H265          H  0.8137245  0.1613777  0.7296172    0.00000       Uiso       1.00
      H266          H  0.7948884  0.1903202  0.7397138    0.00000       Uiso       1.00
      H267          H  0.8164284  0.1841828  0.6549904    0.00000       Uiso       1.00
      C526          C  0.8520355  0.1336995  0.6533721    0.00000       Uiso       1.00
      C527          C  0.8568952  0.1432579  0.6311192    0.00000       Uiso       1.00
      C528          C  0.8704805  0.1351533  0.6040572    0.00000       Uiso       1.00
      C529          C  0.8763221  0.1460540  0.5819952    0.00000       Uiso       1.00
      C530          C  0.8702350  0.1665914  0.5863551    0.00000       Uiso       1.00
      C531          C  0.8568475  0.1747126  0.6137288    0.00000       Uiso       1.00
      C532          C  0.8481691  0.1618751  0.6363544    0.00000       Uiso       1.00
       O34          O  0.8600080  0.1161575  0.6516455    0.00000       Uiso       1.00
      H268          H  0.8764056  0.1202460  0.6001699    0.00000       Uiso       1.00
      H269          H  0.8858231  0.1384180  0.5615945    0.00000       Uiso       1.00
      H270          H  0.8545992  0.1922693  0.6174396    0.00000       Uiso       1.00
      C533          C  0.7587056  0.2554202  0.7183104    0.00000       Uiso       1.00
      C534          C  0.7682645  0.2380274  0.7136117    0.00000       Uiso       1.00
      C535          C  0.7601604  0.2245515  0.7353015    0.00000       Uiso       1.00
      C536          C  0.7710614  0.2083313  0.7302423    0.00000       Uiso       1.00
      C537          C  0.7915986  0.2066036  0.7036179    0.00000       Uiso       1.00
      C538          C  0.7997195  0.2205891  0.6821092    0.00000       Uiso       1.00
      C539          C  0.7868817  0.2345362  0.6862684    0.00000       Uiso       1.00
       O35          O  0.7411633  0.2616662  0.7438248    0.00000       Uiso       1.00
      H271          H  0.7452531  0.2265902  0.7561339    0.00000       Uiso       1.00
      H272          H  0.7634256  0.1974323  0.7473794    0.00000       Uiso       1.00
      H273          H  0.8172762  0.2220515  0.6623045    0.00000       Uiso       1.00
      C540          C  0.8804257  0.2270255  0.5032589    0.00000       Uiso       1.00
      C541          C  0.8630329  0.2318862  0.5302109    0.00000       Uiso       1.00
      C542          C  0.8495560  0.2454711  0.5355833    0.00000       Uiso       1.00
      C543          C  0.8333360  0.2513133  0.5627047    0.00000       Uiso       1.00
      C544          C  0.8316094  0.2452273  0.5849692    0.00000       Uiso       1.00
      C545          C  0.8455957  0.2318403  0.5791041    0.00000       Uiso       1.00
      C546          C  0.8595425  0.2231612  0.5523191    0.00000       Uiso       1.00
       O36          O  0.8866713  0.2349967  0.4794705    0.00000       Uiso       1.00
      H274          H  0.8515927  0.2513955  0.5186386    0.00000       Uiso       1.00
      H275          H  0.8224359  0.2608139  0.5659689    0.00000       Uiso       1.00
      H276          H  0.8470587  0.2295931  0.5951983    0.00000       Uiso       1.00
       B16          B  0.9060997  0.2253370  0.4585460    0.00000       Uiso       1.00
       B17          B  0.7396671  0.2810943  0.7356613    0.00000       Uiso       1.00
       B18          B  0.8503489  0.1146619  0.6807336    0.00000       Uiso       1.00
      C547          C  0.8050780  0.0390260  0.9979027    0.00000       Uiso       1.00
      C548          C  0.8111542  0.0511457  0.0192595    0.00000       Uiso       1.00
      C549          C  0.8382081  0.0699854  0.0139878    0.00000       Uiso       1.00
      C550          C  0.8438558  0.0808351  0.0356144    0.00000       Uiso       1.00
      C551          C  0.8228673  0.0717779  0.0628836    0.00000       Uiso       1.00
      C552          C  0.7958114  0.0525442  0.0677798    0.00000       Uiso       1.00
      C553          C  0.7892390  0.0437280  0.0467599    0.00000       Uiso       1.00
       O37          O  0.8240705  0.0430204  0.9699496    0.00000       Uiso       1.00
      H277          H  0.7800235  0.0431025  0.0877275    0.00000       Uiso       1.00
      C554          C  0.6230287  0.9837098  0.1970508    0.00000       Uiso       1.00
      C555          C  0.6443642  0.9897477  0.1696402    0.00000       Uiso       1.00
      C556          C  0.6389751  0.9814527  0.1479494    0.00000       Uiso       1.00
      C557          C  0.6605847  0.9867805  0.1206105    0.00000       Uiso       1.00
      C558          C  0.6879300  0.9989102  0.1142492    0.00000       Uiso       1.00
      C559          C  0.6928728  0.0066857  0.1363782    0.00000       Uiso       1.00
      C560          C  0.6718643  0.0043093  0.1640109    0.00000       Uiso       1.00
       O38          O  0.5951115  0.9687701  0.2058712    0.00000       Uiso       1.00
      H278          H  0.6179492  0.9710454  0.1523567    0.00000       Uiso       1.00
      H279          H  0.6555941  0.9811138  0.1046256    0.00000       Uiso       1.00
      H280          H  0.7128892  0.0131712  0.1321642    0.00000       Uiso       1.00
      C561          C  0.8221621  0.1104853  0.1798875    0.00000       Uiso       1.00
      C562          C  0.7947586  0.0951860  0.1859655    0.00000       Uiso       1.00
      C563          C  0.7730743  0.0922689  0.2130530    0.00000       Uiso       1.00
      C564          C  0.7457291  0.0759801  0.2188021    0.00000       Uiso       1.00
      C565          C  0.7393615  0.0607744  0.1978192    0.00000       Uiso       1.00
      C566          C  0.7614934  0.0636374  0.1707372    0.00000       Uiso       1.00
      C567          C  0.7891257  0.0822795  0.1641136    0.00000       Uiso       1.00
       O39          O  0.8308967  0.1234978  0.1990556    0.00000       Uiso       1.00
      H281          H  0.7775172  0.1028929  0.2296472    0.00000       Uiso       1.00
      H282          H  0.7297636  0.0753016  0.2397856    0.00000       Uiso       1.00
      H283          H  0.7573256  0.0501381  0.1549006    0.00000       Uiso       1.00
      C568          C  0.8435252  0.1133024  0.1532822    0.00000       Uiso       1.00
      C569          C  0.8388120  0.1018591  0.1310158    0.00000       Uiso       1.00
      C570          C  0.8604555  0.1046914  0.1038908    0.00000       Uiso       1.00
      C571          C  0.8553160  0.0941080  0.0819260    0.00000       Uiso       1.00
      C572          C  0.8286774  0.0820131  0.0863435    0.00000       Uiso       1.00
      C573          C  0.8071967  0.0796650  0.1137376    0.00000       Uiso       1.00
      C574          C  0.8114085  0.0873819  0.1363214    0.00000       Uiso       1.00
       O40          O  0.8690192  0.1290032  0.1516562    0.00000       Uiso       1.00
      H284          H  0.7874045  0.0733107  0.1174658    0.00000       Uiso       1.00
      C575          C  0.6283045  0.9917876  0.2183752    0.00000       Uiso       1.00
      C576          C  0.6552593  0.0072938  0.2136687    0.00000       Uiso       1.00
      C577          C  0.6606172  0.0155538  0.2353777    0.00000       Uiso       1.00
      C578          C  0.6877370  0.0319410  0.2303037    0.00000       Uiso       1.00
      C579          C  0.7100473  0.0419643  0.2036407    0.00000       Uiso       1.00
      C580          C  0.7041808  0.0338128  0.1821306    0.00000       Uiso       1.00
      C581          C  0.6773764  0.0148733  0.1862979    0.00000       Uiso       1.00
       O41          O  0.6045230  0.9836200  0.2439301    0.00000       Uiso       1.00
      H285          H  0.6436665  0.0090113  0.2562267    0.00000       Uiso       1.00
      H286          H  0.6909561  0.0367914  0.2474623    0.00000       Uiso       1.00
      H287          H  0.7203147  0.0434602  0.1623049    0.00000       Uiso       1.00
      C582          C  0.7784520  0.0204689  0.0032184    0.00000       Uiso       1.00
      C583          C  0.7562066  0.0137241  0.0301637    0.00000       Uiso       1.00
      C584          C  0.7291443  0.9949131  0.0355079    0.00000       Uiso       1.00
      C585          C  0.7070851  0.9892421  0.0626208    0.00000       Uiso       1.00
      C586          C  0.7114285  0.0036067  0.0849383    0.00000       Uiso       1.00
      C587          C  0.7388072  0.0228220  0.0790777    0.00000       Uiso       1.00
      C588          C  0.7614468  0.0265260  0.0522717    0.00000       Uiso       1.00
       O42          O  0.7765894  0.0103964  0.9794825    0.00000       Uiso       1.00
      H288          H  0.7252843  0.9844930  0.0185335    0.00000       Uiso       1.00
      H289          H  0.6867197  0.9737182  0.0658136    0.00000       Uiso       1.00
      H290          H  0.7425382  0.0361693  0.0951888    0.00000       Uiso       1.00
       B19          B  0.8057654  0.0248323  0.9585240    0.00000       Uiso       1.00
       B20          B  0.5835781  0.9689323  0.2356964    0.00000       Uiso       1.00
       B21          B  0.8607266  0.1352592  0.1807766    0.00000       Uiso       1.00
      H291          H  0.8550071  0.0765127  0.9931338    0.00000       Uiso       1.00
      H292          H  0.8648406  0.0961066  0.0306331    0.00000       Uiso       1.00
      H293          H  0.8813642  0.1149044  0.0996578    0.00000       Uiso       1.00
      H294          H  0.8724800  0.0958013  0.0615271    0.00000       Uiso       1.00
      C589          C  0.1058684  0.4980111  0.2142102    0.00000       Uiso       1.00
      C590          C  0.1100282  0.5193480  0.2039727    0.00000       Uiso       1.00
      C591          C  0.0965420  0.5140002  0.1904079    0.00000       Uiso       1.00
      C592          C  0.1020442  0.5356094  0.1791671    0.00000       Uiso       1.00
      C593          C  0.1224198  0.5628784  0.1797388    0.00000       Uiso       1.00
      C594          C  0.1360172  0.5677913  0.1931916    0.00000       Uiso       1.00
      C595          C  0.1286675  0.5468138  0.2071713    0.00000       Uiso       1.00
       O43          O  0.0890081  0.4701182  0.2120309    0.00000       Uiso       1.00
      H295          H  0.0816395  0.4930031  0.1887161    0.00000       Uiso       1.00
      H296          H  0.0903784  0.5306852  0.1698812    0.00000       Uiso       1.00
      H297          H  0.1535609  0.5877322  0.1914223    0.00000       Uiso       1.00
      C596          C  0.2328367  0.6970373  0.2691250    0.00000       Uiso       1.00
      C597          C  0.2156602  0.6696223  0.2649645    0.00000       Uiso       1.00
      C598          C  0.2075225  0.6479191  0.2784501    0.00000       Uiso       1.00
      C599          C  0.1914157  0.6205709  0.2729475    0.00000       Uiso       1.00
      C600          C  0.1845220  0.6142488  0.2525723    0.00000       Uiso       1.00
      C601          C  0.1932059  0.6363860  0.2389753    0.00000       Uiso       1.00
      C602          C  0.2068336  0.6639940  0.2463253    0.00000       Uiso       1.00
       O44          O  0.2438691  0.7058909  0.2859853    0.00000       Uiso       1.00
      H298          H  0.2136180  0.6523232  0.2933523    0.00000       Uiso       1.00
      H299          H  0.1846749  0.6045436  0.2846130    0.00000       Uiso       1.00
      H300          H  0.1908087  0.6322193  0.2214316    0.00000       Uiso       1.00
      C603          C  0.1607794  0.6798928  0.1421572    0.00000       Uiso       1.00
      C604          C  0.1710180  0.6859714  0.1593337    0.00000       Uiso       1.00
      C605          C  0.1845830  0.7130228  0.1674724    0.00000       Uiso       1.00
      C606          C  0.1958245  0.7187617  0.1835790    0.00000       Uiso       1.00
      C607          C  0.1952533  0.6978148  0.1904717    0.00000       Uiso       1.00
      C608          C  0.1818006  0.6707643  0.1817869    0.00000       Uiso       1.00
      C609          C  0.1678202  0.6641338  0.1681595    0.00000       Uiso       1.00
       O45          O  0.1629575  0.6989318  0.1311254    0.00000       Uiso       1.00
      H301          H  0.1862744  0.7296170  0.1613783    0.00000       Uiso       1.00
      H302          H  0.2051106  0.7397137  0.1903208    0.00000       Uiso       1.00
      H303          H  0.1835706  0.6549902  0.1841833    0.00000       Uiso       1.00
      C610          C  0.1479636  0.6533719  0.1337000    0.00000       Uiso       1.00
      C611          C  0.1431038  0.6311190  0.1432583    0.00000       Uiso       1.00
      C612          C  0.1295185  0.6040571  0.1351538    0.00000       Uiso       1.00
      C613          C  0.1236770  0.5819951  0.1460545    0.00000       Uiso       1.00
      C614          C  0.1297640  0.5863550  0.1665918    0.00000       Uiso       1.00
      C615          C  0.1431516  0.6137286  0.1747131    0.00000       Uiso       1.00
      C616          C  0.1518299  0.6363543  0.1618755    0.00000       Uiso       1.00
       O46          O  0.1399910  0.6516453  0.1161580    0.00000       Uiso       1.00
      H304          H  0.1235935  0.6001698  0.1202464    0.00000       Uiso       1.00
      H305          H  0.1141761  0.5615944  0.1384184    0.00000       Uiso       1.00
      H306          H  0.1453998  0.6174394  0.1922698    0.00000       Uiso       1.00
      C617          C  0.2412934  0.7183101  0.2554207    0.00000       Uiso       1.00
      C618          C  0.2317345  0.7136115  0.2380280    0.00000       Uiso       1.00
      C619          C  0.2398386  0.7353013  0.2245521    0.00000       Uiso       1.00
      C620          C  0.2289377  0.7302421  0.2083319    0.00000       Uiso       1.00
      C621          C  0.2084005  0.7036178  0.2066041    0.00000       Uiso       1.00
      C622          C  0.2002795  0.6821090  0.2205897    0.00000       Uiso       1.00
      C623          C  0.2131173  0.6862682  0.2345367    0.00000       Uiso       1.00
       O47          O  0.2588356  0.7438246  0.2616668    0.00000       Uiso       1.00
      H307          H  0.2547459  0.7561336  0.2265908    0.00000       Uiso       1.00
      H308          H  0.2365733  0.7473792  0.1974329    0.00000       Uiso       1.00
      H309          H  0.1827228  0.6623042  0.2220520    0.00000       Uiso       1.00
      C624          C  0.1195733  0.5032587  0.2270259    0.00000       Uiso       1.00
      C625          C  0.1369662  0.5302106  0.2318866    0.00000       Uiso       1.00
      C626          C  0.1504431  0.5355830  0.2454715    0.00000       Uiso       1.00
      C627          C  0.1666631  0.5627045  0.2513137    0.00000       Uiso       1.00
      C628          C  0.1683896  0.5849690  0.2452278    0.00000       Uiso       1.00
      C629          C  0.1544033  0.5791039  0.2318407    0.00000       Uiso       1.00
      C630          C  0.1404565  0.5523189  0.2231616    0.00000       Uiso       1.00
       O48          O  0.1133278  0.4794703  0.2349970    0.00000       Uiso       1.00
      H310          H  0.1484064  0.5186384  0.2513959    0.00000       Uiso       1.00
      H311          H  0.1775631  0.5659687  0.2608143    0.00000       Uiso       1.00
      H312          H  0.1529403  0.5951981  0.2295935    0.00000       Uiso       1.00
       B22          B  0.0938993  0.4585458  0.2253373    0.00000       Uiso       1.00
       B23          B  0.2603319  0.7356611  0.2810949    0.00000       Uiso       1.00
       B24          B  0.1496502  0.6807334  0.1146625    0.00000       Uiso       1.00
