data_60
_audit_creation_date              0000-00-00
_audit_creation_method            'LanYouShi'
_symmetry_space_group_name_H-M    'P1'
_cell_length_a                    68.1961975
_cell_length_b                    68.1961975
_cell_length_c                    68.1961975
_cell_angle_alpha                 60.0000000
_cell_angle_beta                  120.0005035
_cell_angle_gamma                 120.0005035
loop_
_atom_site_label
_atom_site_type_symbol
_atom_site_fract_x
_atom_site_fract_y
_atom_site_fract_z
_atom_site_U_iso_or_equiv
_atom_site_adp_type
_atom_site_occupancy
        C1          C  0.2669868  0.4047247  0.4047250    0.00000       Uiso       1.00
        C2          C  0.2794582  0.3924126  0.4277448    0.00000       Uiso       1.00
        C3          C  0.3042895  0.4029064  0.4383116    0.00000       Uiso       1.00
        C4          C  0.2794582  0.4277445  0.3924129    0.00000       Uiso       1.00
        C5          C  0.3042883  0.4382883  0.4028244    0.00000       Uiso       1.00
        C6          C  0.3171515  0.4260091  0.4259554    0.00000       Uiso       1.00
        H1          H  0.5440082  0.6864708  0.4647880    0.00000       Uiso       1.00
        H2          H  0.2695564  0.4380672  0.3736471    0.00000       Uiso       1.00
        C7          C  0.5952721  0.4575360  0.7330106    0.00000       Uiso       1.00
        C8          C  0.5722523  0.4592998  0.7205392    0.00000       Uiso       1.00
        C9          C  0.5617084  0.4631745  0.6957091    0.00000       Uiso       1.00
       C10          C  0.6075845  0.4593000  0.7205395    0.00000       Uiso       1.00
       C11          C  0.5970906  0.4630704  0.6957083    0.00000       Uiso       1.00
       C12          C  0.5739877  0.4651857  0.6828463    0.00000       Uiso       1.00
        H3          H  0.3135258  0.3927474  0.4559878    0.00000       Uiso       1.00
        H4          H  0.5619294  0.4578409  0.7304407    0.00000       Uiso       1.00
       C13          C  0.5952719  0.7330100  0.4575365    0.00000       Uiso       1.00
       C14          C  0.6075843  0.7205388  0.4593005    0.00000       Uiso       1.00
       C15          C  0.5971732  0.6957086  0.4631761    0.00000       Uiso       1.00
       C16          C  0.5722521  0.7205385  0.4593002    0.00000       Uiso       1.00
       C17          C  0.5616851  0.6957074  0.4630702    0.00000       Uiso       1.00
       C18          C  0.5740419  0.6828457  0.4651865    0.00000       Uiso       1.00
        H5          H  0.5352114  0.4559904  0.3927511    0.00000       Uiso       1.00
        H6          H  0.6263502  0.7304406  0.4578419    0.00000       Uiso       1.00
       C19          C  0.5424630  0.4047270  0.4047273    0.00000       Uiso       1.00
       C20          C  0.5406991  0.4277467  0.3924150    0.00000       Uiso       1.00
       C21          C  0.5369293  0.4383137  0.4029093    0.00000       Uiso       1.00
       C22          C  0.5406991  0.3924147  0.4277469    0.00000       Uiso       1.00
       C23          C  0.5368240  0.4028259  0.4382906    0.00000       Uiso       1.00
       C24          C  0.5348134  0.4259570  0.4260118    0.00000       Uiso       1.00
        H7          H  0.6072496  0.4647895  0.6864721    0.00000       Uiso       1.00
       C25          C  0.4999993  0.5000006  0.4999996    0.00000       Uiso       1.00
        H8          H  0.5421578  0.3736491  0.4380697    0.00000       Uiso       1.00
       C26          C  0.2660821  0.3670624  0.4416894    0.00000       Uiso       1.00
        H9          H  0.2770513  0.3612517  0.4569076    0.00000       Uiso       1.00
       H10          H  0.2592101  0.3566029  0.4328752    0.00000       Uiso       1.00
       H11          H  0.2537337  0.3676942  0.4438878    0.00000       Uiso       1.00
       C27          C  0.5426697  0.4416914  0.3670649    0.00000       Uiso       1.00
       H12          H  0.5411080  0.4569096  0.3612541    0.00000       Uiso       1.00
       H13          H  0.5302680  0.4328772  0.3566054    0.00000       Uiso       1.00
       H14          H  0.5578486  0.4438901  0.3676970    0.00000       Uiso       1.00
       C28          C  0.6329348  0.4573297  0.7339156    0.00000       Uiso       1.00
       H15          H  0.6387455  0.4588914  0.7229466    0.00000       Uiso       1.00
       H16          H  0.6323027  0.4421507  0.7462639    0.00000       Uiso       1.00
       H17          H  0.6433943  0.4697312  0.7407878    0.00000       Uiso       1.00
       C29          C  0.5583072  0.7339143  0.4573295    0.00000       Uiso       1.00
       H18          H  0.5430890  0.7229452  0.4588911    0.00000       Uiso       1.00
       H19          H  0.5561087  0.7462627  0.4421506    0.00000       Uiso       1.00
       H20          H  0.5671214  0.7407865  0.4697311    0.00000       Uiso       1.00
       C30          C  0.3172051  0.4637589  0.3886260    0.00000       Uiso       1.00
       H21          H  0.3337710  0.4685316  0.3977920    0.00000       Uiso       1.00
       H22          H  0.3103332  0.4746425  0.3854404    0.00000       Uiso       1.00
       H23          H  0.3154795  0.4638148  0.3738871    0.00000       Uiso       1.00
       C31          C  0.5362380  0.4648194  0.6827922    0.00000       Uiso       1.00
       H24          H  0.5314652  0.4674464  0.6662265    0.00000       Uiso       1.00
       H25          H  0.5361823  0.4777770  0.6845177    0.00000       Uiso       1.00
       H26          H  0.5253540  0.4502494  0.6896641    0.00000       Uiso       1.00
       C32          C  0.5351784  0.3886273  0.4637607    0.00000       Uiso       1.00
       H27          H  0.5325512  0.3977932  0.4685332    0.00000       Uiso       1.00
       H28          H  0.5497484  0.3854414  0.4746449    0.00000       Uiso       1.00
       H29          H  0.5222207  0.3738885  0.4638162    0.00000       Uiso       1.00
       C33          C  0.6113719  0.6827912  0.4648225    0.00000       Uiso       1.00
       H30          H  0.6022059  0.6662254  0.4674500    0.00000       Uiso       1.00
       H31          H  0.6261107  0.6845170  0.4777803    0.00000       Uiso       1.00
       H32          H  0.6145581  0.6896625  0.4502529    0.00000       Uiso       1.00
       C34          C  0.3437693  0.4371491  0.4369816    0.00000       Uiso       1.00
       C35          C  0.3543358  0.4344000  0.4616047    0.00000       Uiso       1.00
       C36          C  0.3792339  0.4447646  0.4718846    0.00000       Uiso       1.00
       C37          C  0.3589202  0.4506156  0.4229754    0.00000       Uiso       1.00
       C38          C  0.3838128  0.4609600  0.4332504    0.00000       Uiso       1.00
       C39          C  0.3944071  0.4582209  0.4578854    0.00000       Uiso       1.00
       H33          H  0.5092055  0.6134281  0.4532156    0.00000       Uiso       1.00
       H34          H  0.3515711  0.4527597  0.4040862    0.00000       Uiso       1.00
       C40          C  0.5628479  0.4696369  0.6562289    0.00000       Uiso       1.00
       C41          C  0.5493839  0.4853297  0.6410774    0.00000       Uiso       1.00
       C42          C  0.5390403  0.4896039  0.6161848    0.00000       Uiso       1.00
       C43          C  0.5655954  0.4583276  0.6456632    0.00000       Uiso       1.00
       C44          C  0.5552313  0.4625818  0.6207650    0.00000       Uiso       1.00
       C45          C  0.5417778  0.4783003  0.6055915    0.00000       Uiso       1.00
       H35          H  0.3865740  0.4425390  0.4907969    0.00000       Uiso       1.00
       H36          H  0.5472425  0.4947278  0.6484262    0.00000       Uiso       1.00
       C46          C  0.5630159  0.6562284  0.4696378    0.00000       Uiso       1.00
       C47          C  0.5770202  0.6410763  0.4853372    0.00000       Uiso       1.00
       C48          C  0.5667445  0.6161839  0.4896095    0.00000       Uiso       1.00
       C49          C  0.5383952  0.6456637  0.4583205    0.00000       Uiso       1.00
       C50          C  0.5281153  0.6207662  0.4625718    0.00000       Uiso       1.00
       C51          C  0.5421127  0.6055919  0.4782971    0.00000       Uiso       1.00
       H37          H  0.5467817  0.4907939  0.4425600    0.00000       Uiso       1.00
       H38          H  0.5959074  0.6484246  0.4947398    0.00000       Uiso       1.00
       C52          C  0.5303622  0.4369826  0.4371523    0.00000       Uiso       1.00
       C53          C  0.5416775  0.4616037  0.4344117    0.00000       Uiso       1.00
       C54          C  0.5374269  0.4718834  0.4447786    0.00000       Uiso       1.00
       C55          C  0.5146657  0.4229774  0.4506123    0.00000       Uiso       1.00
       C56          C  0.5103943  0.4332528  0.4609578    0.00000       Uiso       1.00
       C57          C  0.5217044  0.4578851  0.4582283    0.00000       Uiso       1.00
       H39          H  0.5574552  0.4532357  0.6134235    0.00000       Uiso       1.00
       H40          H  0.5052649  0.4040896  0.4527510    0.00000       Uiso       1.00
       C58          C  0.3385688  0.4203776  0.4776607    0.00000       Uiso       1.00
       H41          H  0.3484229  0.4202100  0.4936435    0.00000       Uiso       1.00
       H42          H  0.3303140  0.4043617  0.4774579    0.00000       Uiso       1.00
       H43          H  0.3272432  0.4279109  0.4717854    0.00000       Uiso       1.00
       C59          C  0.5594853  0.4776576  0.4203974    0.00000       Uiso       1.00
       H44          H  0.5654513  0.4936392  0.4202348    0.00000       Uiso       1.00
       H45          H  0.5515247  0.4774604  0.4043795    0.00000       Uiso       1.00
       H46          H  0.5724651  0.4717766  0.4279324    0.00000       Uiso       1.00
       C60          C  0.5796162  0.4405255  0.6614310    0.00000       Uiso       1.00
       H47          H  0.5797830  0.4345632  0.6515774    0.00000       Uiso       1.00
       H48          H  0.5720824  0.4275428  0.6727564    0.00000       Uiso       1.00
       H49          H  0.5956326  0.4484888  0.6696858    0.00000       Uiso       1.00
       C61          C  0.5223429  0.6614332  0.4405101    0.00000       Uiso       1.00
       H50          H  0.5063612  0.6515806  0.4345427    0.00000       Uiso       1.00
       H51          H  0.5282258  0.6727583  0.4275314    0.00000       Uiso       1.00
       H52          H  0.5225390  0.6696884  0.4484690    0.00000       Uiso       1.00
       C62          C  0.3995478  0.4748218  0.4171813    0.00000       Uiso       1.00
       H53          H  0.4158493  0.4807742  0.4264423    0.00000       Uiso       1.00
       H54          H  0.3944595  0.4878724  0.4044110    0.00000       Uiso       1.00
       H55          H  0.3980414  0.4643699  0.4107776    0.00000       Uiso       1.00
       C63          C  0.5251854  0.5075522  0.6004496    0.00000       Uiso       1.00
       H56          H  0.5192326  0.5086405  0.5841480    0.00000       Uiso       1.00
       H57          H  0.5356414  0.5229003  0.6019570    0.00000       Uiso       1.00
       H58          H  0.5121353  0.5021880  0.6055369    0.00000       Uiso       1.00
       C64          C  0.4924478  0.4171879  0.4748150    0.00000       Uiso       1.00
       H59          H  0.4913629  0.4264504  0.4807680    0.00000       Uiso       1.00
       H60          H  0.4978114  0.4044144  0.4878650    0.00000       Uiso       1.00
       H61          H  0.4770982  0.4107889  0.4643602    0.00000       Uiso       1.00
       C65          C  0.5828077  0.6004440  0.5075610    0.00000       Uiso       1.00
       H62          H  0.5735450  0.5841435  0.5086459    0.00000       Uiso       1.00
       H63          H  0.5892033  0.6019489  0.5229096    0.00000       Uiso       1.00
       H64          H  0.5955837  0.6055299  0.5022015    0.00000       Uiso       1.00
       C66          C  0.4210937  0.4691828  0.4689123    0.00000       Uiso       1.00
       C67          C  0.4338409  0.4570186  0.4921235    0.00000       Uiso       1.00
       C68          C  0.4588237  0.4670166  0.5022409    0.00000       Uiso       1.00
       C69          C  0.4342259  0.4916380  0.4561265    0.00000       Uiso       1.00
       C70          C  0.4592015  0.5016170  0.4662410    0.00000       Uiso       1.00
       C71          C  0.4720163  0.4899583  0.4898771    0.00000       Uiso       1.00
       H65          H  0.4803210  0.5320802  0.4917864    0.00000       Uiso       1.00
       H66          H  0.4251716  0.5015703  0.4381816    0.00000       Uiso       1.00
       C72          C  0.5308164  0.4829975  0.5789053    0.00000       Uiso       1.00
       C73          C  0.5083618  0.4864609  0.5657735    0.00000       Uiso       1.00
       C74          C  0.4983827  0.4913452  0.5407971    0.00000       Uiso       1.00
       C75          C  0.5429806  0.4846977  0.5661584    0.00000       Uiso       1.00
       C76          C  0.5329825  0.4895668  0.5411751    0.00000       Uiso       1.00
       C77          C  0.5100415  0.4921831  0.5279822    0.00000       Uiso       1.00
       H67          H  0.4679211  0.4564510  0.5196767    0.00000       Uiso       1.00
       H68          H  0.4984330  0.4854202  0.5748308    0.00000       Uiso       1.00
       C78          C  0.5310870  0.5789060  0.4829950    0.00000       Uiso       1.00
       C79          C  0.5438740  0.5657740  0.4864600    0.00000       Uiso       1.00
       C80          C  0.5337598  0.5407983  0.4913440    0.00000       Uiso       1.00
       C81          C  0.5078765  0.5661595  0.4846951    0.00000       Uiso       1.00
       C82          C  0.4977585  0.5411770  0.4895629    0.00000       Uiso       1.00
       C83          C  0.5101228  0.5279842  0.4921796    0.00000       Uiso       1.00
       H69          H  0.5082144  0.5196778  0.4564590    0.00000       Uiso       1.00
       H70          H  0.5618188  0.5748284  0.4854181    0.00000       Uiso       1.00
       C84          C  0.5170055  0.4689103  0.4691906    0.00000       Uiso       1.00
       C85          C  0.5153084  0.4921224  0.4570269    0.00000       Uiso       1.00
       C86          C  0.5104381  0.5022402  0.4670219    0.00000       Uiso       1.00
       C87          C  0.5135347  0.4561218  0.4916425    0.00000       Uiso       1.00
       C88          C  0.5086486  0.4662367  0.5016177    0.00000       Uiso       1.00
       C89          C  0.5078161  0.4898749  0.4899600    0.00000       Uiso       1.00
       H71          H  0.5435470  0.4917973  0.5320749    0.00000       Uiso       1.00
       H72          H  0.5145724  0.4381751  0.5015755    0.00000       Uiso       1.00
       C90          C  0.4206660  0.4318327  0.5064911    0.00000       Uiso       1.00
       H73          H  0.4317815  0.4262056  0.5216721    0.00000       Uiso       1.00
       H74          H  0.4136300  0.4211351  0.4978944    0.00000       Uiso       1.00
       H75          H  0.4084592  0.4326206  0.5087702    0.00000       Uiso       1.00
       C91          C  0.5176773  0.5064916  0.4318461    0.00000       Uiso       1.00
       H76          H  0.5161166  0.5216733  0.4262170    0.00000       Uiso       1.00
       H77          H  0.5054227  0.4978967  0.4211456    0.00000       Uiso       1.00
       H78          H  0.5329538  0.5087689  0.4326420    0.00000       Uiso       1.00
       C92          C  0.5681677  0.4823440  0.5793322    0.00000       Uiso       1.00
       H79          H  0.5737944  0.4839052  0.5682167    0.00000       Uiso       1.00
       H80          H  0.5673817  0.4670710  0.5915403    0.00000       Uiso       1.00
       H81          H  0.5788648  0.4946039  0.5863663    0.00000       Uiso       1.00
       C93          C  0.4935099  0.5793383  0.4823337    0.00000       Uiso       1.00
       H82          H  0.4783286  0.5682244  0.4838956    0.00000       Uiso       1.00
       H83          H  0.4912313  0.5915433  0.4670584    0.00000       Uiso       1.00
       H84          H  0.5021071  0.5863768  0.4945901    0.00000       Uiso       1.00
       C94          C  0.4725984  0.5256416  0.4507596    0.00000       Uiso       1.00
       H85          H  0.4892347  0.5302780  0.4597481    0.00000       Uiso       1.00
       H86          H  0.4664109  0.5376299  0.4461953    0.00000       Uiso       1.00
       H87          H  0.4704142  0.5238373  0.4367853    0.00000       Uiso       1.00
       C95          C  0.4743624  0.4962075  0.5273967    0.00000       Uiso       1.00
       H88          H  0.4697275  0.4992190  0.5107607    0.00000       Uiso       1.00
       H89          H  0.4761711  0.5098038  0.5295808    0.00000       Uiso       1.00
       H90          H  0.4623707  0.4825991  0.5335819    0.00000       Uiso       1.00
       C96          C  0.5037817  0.4507513  0.5256355    0.00000       Uiso       1.00
       H91          H  0.5007689  0.4597395  0.5302706    0.00000       Uiso       1.00
       H92          H  0.5173891  0.4461814  0.5376284    0.00000       Uiso       1.00
       H93          H  0.4901851  0.4367802  0.5238239    0.00000       Uiso       1.00
       C97          C  0.5492446  0.5274032  0.4962015    0.00000       Uiso       1.00
       H94          H  0.5402576  0.5107666  0.4992139    0.00000       Uiso       1.00
       H95          H  0.5632182  0.5295892  0.5097961    0.00000       Uiso       1.00
       H96          H  0.5538102  0.5335903  0.4825909    0.00000       Uiso       1.00
       C98          C  0.1724558  0.0347197  0.4047323    0.00000       Uiso       1.00
       C99          C  0.1847682  0.0364837  0.4277520    0.00000       Uiso       1.00
      C100          C  0.1742745  0.0402546  0.4383185    0.00000       Uiso       1.00
      C101          C  0.1494360  0.0364835  0.3924198    0.00000       Uiso       1.00
      C102          C  0.1388923  0.0403584  0.4028311    0.00000       Uiso       1.00
      C103          C  0.1511717  0.0423700  0.4259620    0.00000       Uiso       1.00
       H97          H  0.8907093  0.9699322  0.4647907    0.00000       Uiso       1.00
       H98          H  0.1391132  0.0350246  0.3736541    0.00000       Uiso       1.00
      C104          C  0.1196459  0.9819102  0.7330148    0.00000       Uiso       1.00
      C105          C  0.1178819  0.9695979  0.7205436    0.00000       Uiso       1.00
      C106          C  0.1140071  0.9800093  0.6957136    0.00000       Uiso       1.00
      C107          C  0.1178825  0.0049299  0.7205436    0.00000       Uiso       1.00
      C108          C  0.1141120  0.0154967  0.6957124    0.00000       Uiso       1.00
      C109          C  0.1119966  0.0031404  0.6828506    0.00000       Uiso       1.00
       H99          H  0.1844337  0.0419739  0.4559947    0.00000       Uiso       1.00
      H100          H  0.1193407  0.9508322  0.7304452    0.00000       Uiso       1.00
      C110          C  0.8441702  0.9819083  0.4575385    0.00000       Uiso       1.00
      C111          C  0.8566421  0.0049281  0.4593025    0.00000       Uiso       1.00
      C112          C  0.8814723  0.0154716  0.4631784    0.00000       Uiso       1.00
      C113          C  0.8566415  0.9695961  0.4593025    0.00000       Uiso       1.00
      C114          C  0.8814728  0.9800903  0.4630727    0.00000       Uiso       1.00
      C115          C  0.8943352  0.0031928  0.4651891    0.00000       Uiso       1.00
      H101          H  0.1211918  0.2636544  0.3927558    0.00000       Uiso       1.00
      H102          H  0.8467404  0.0152507  0.4578437    0.00000       Uiso       1.00
      C116          C  0.1724556  0.3101936  0.4047323    0.00000       Uiso       1.00
      C117          C  0.1494358  0.2977221  0.3924199    0.00000       Uiso       1.00
      C118          C  0.1388687  0.2728909  0.4029141    0.00000       Uiso       1.00
      C119          C  0.1847680  0.2977224  0.4277521    0.00000       Uiso       1.00
      C120          C  0.1743567  0.2728924  0.4382957    0.00000       Uiso       1.00
      C121          C  0.1512255  0.2600293  0.4260167    0.00000       Uiso       1.00
      H103          H  0.1123930  0.0331729  0.6864762    0.00000       Uiso       1.00
      C122          C  0.0771809  0.0771829  0.5000043    0.00000       Uiso       1.00
      H104          H  0.2035338  0.3076242  0.4380750    0.00000       Uiso       1.00
      C123          C  0.2101185  0.0345133  0.4416970    0.00000       Uiso       1.00
      H105          H  0.2159293  0.0360751  0.4569152    0.00000       Uiso       1.00
      H106          H  0.2205780  0.0469150  0.4328829    0.00000       Uiso       1.00
      H107          H  0.2094866  0.0193345  0.4438955    0.00000       Uiso       1.00
      C124          C  0.1354909  0.3110979  0.3670696    0.00000       Uiso       1.00
      H108          H  0.1202727  0.3001288  0.3612588    0.00000       Uiso       1.00
      H109          H  0.1443052  0.3179700  0.3566103    0.00000       Uiso       1.00
      H110          H  0.1332925  0.3234463  0.3677016    0.00000       Uiso       1.00
      C125          C  0.1198531  0.0188747  0.7339195    0.00000       Uiso       1.00
      H111          H  0.1182914  0.0340928  0.7229504    0.00000       Uiso       1.00
      H112          H  0.1350321  0.0210734  0.7462680    0.00000       Uiso       1.00
      H113          H  0.1074515  0.0100605  0.7407915    0.00000       Uiso       1.00
      C126          C  0.8432655  0.9442459  0.4573318    0.00000       Uiso       1.00
      H114          H  0.8542346  0.9384351  0.4588936    0.00000       Uiso       1.00
      H115          H  0.8309171  0.9448779  0.4421528    0.00000       Uiso       1.00
      H116          H  0.8363934  0.9337863  0.4697332    0.00000       Uiso       1.00
      C127          C  0.1134217  0.0420029  0.3886324    0.00000       Uiso       1.00
      H117          H  0.1086490  0.0446301  0.3977982    0.00000       Uiso       1.00
      H118          H  0.1025379  0.0274328  0.3854468    0.00000       Uiso       1.00
      H119          H  0.1133657  0.0549603  0.3738935    0.00000       Uiso       1.00
      C128          C  0.1123620  0.9658107  0.6827968    0.00000       Uiso       1.00
      H120          H  0.1097349  0.9749764  0.6662311    0.00000       Uiso       1.00
      H121          H  0.0994042  0.9510717  0.6845222    0.00000       Uiso       1.00
      H122          H  0.1269320  0.9626248  0.6896689    0.00000       Uiso       1.00
      C129          C  0.1885554  0.2599754  0.4637659    0.00000       Uiso       1.00
      H123          H  0.1793894  0.2434097  0.4685384    0.00000       Uiso       1.00
      H124          H  0.1917414  0.2668471  0.4746501    0.00000       Uiso       1.00
      H125          H  0.2032943  0.2617010  0.4638216    0.00000       Uiso       1.00
      C130          C  0.8943900  0.0409416  0.4648248    0.00000       Uiso       1.00
      H126          H  0.9109558  0.0457139  0.4674525    0.00000       Uiso       1.00
      H127          H  0.8926643  0.0409968  0.4777825    0.00000       Uiso       1.00
      H128          H  0.8875187  0.0518260  0.4502551    0.00000       Uiso       1.00
      C131          C  0.1400318  0.0468217  0.4369880    0.00000       Uiso       1.00
      C132          C  0.1427810  0.0355143  0.4616110    0.00000       Uiso       1.00
      C133          C  0.1324165  0.0397679  0.4718907    0.00000       Uiso       1.00
      C134          C  0.1265653  0.0625123  0.4229815    0.00000       Uiso       1.00
      C135          C  0.1162210  0.0667857  0.4332563    0.00000       Uiso       1.00
      C136          C  0.1189602  0.0554842  0.4578912    0.00000       Uiso       1.00
      H129          H  0.9637529  0.0197448  0.4532193    0.00000       Uiso       1.00
      H130          H  0.1244212  0.0719083  0.4040924    0.00000       Uiso       1.00
      C137          C  0.1075453  0.0141667  0.6562332    0.00000       Uiso       1.00
      C138          C  0.0918523  0.0001612  0.6410818    0.00000       Uiso       1.00
      C139          C  0.0875780  0.0104359  0.6161892    0.00000       Uiso       1.00
      C140          C  0.1188547  0.0387893  0.6456677    0.00000       Uiso       1.00
      C141          C  0.1146003  0.0490689  0.6207696    0.00000       Uiso       1.00
      C142          C  0.0988817  0.0350704  0.6055959    0.00000       Uiso       1.00
      H131          H  0.1346422  0.0304215  0.4908029    0.00000       Uiso       1.00
      H132          H  0.0824534  0.9812725  0.6484305    0.00000       Uiso       1.00
      C143          C  0.9209527  0.0143329  0.4696407    0.00000       Uiso       1.00
      C144          C  0.9361049  0.0277900  0.4853401    0.00000       Uiso       1.00
      C145          C  0.9609975  0.0381346  0.4896127    0.00000       Uiso       1.00
      C146          C  0.9315172  0.0115941  0.4583236    0.00000       Uiso       1.00
      C147          C  0.9564149  0.0219604  0.4625753    0.00000       Uiso       1.00
      C148          C  0.9715893  0.0354071  0.4783005    0.00000       Uiso       1.00
      H133          H  0.0863882  0.1906120  0.4425644    0.00000       Uiso       1.00
      H134          H  0.9287568  0.0299265  0.4947425    0.00000       Uiso       1.00
      C149          C  0.1401997  0.2334119  0.4371572    0.00000       Uiso       1.00
      C150          C  0.1155785  0.2228465  0.4344163    0.00000       Uiso       1.00
      C151          C  0.1052987  0.1979491  0.4447832    0.00000       Uiso       1.00
      C152          C  0.1542049  0.2182605  0.4506174    0.00000       Uiso       1.00
      C153          C  0.1439295  0.1933682  0.4609629    0.00000       Uiso       1.00
      C154          C  0.1192970  0.1827753  0.4582331    0.00000       Uiso       1.00
      H135          H  0.1239467  0.0679807  0.6134281    0.00000       Uiso       1.00
      H136          H  0.1730927  0.2256088  0.4527564    0.00000       Uiso       1.00
      C155          C  0.1568034  0.0177137  0.4776672    0.00000       Uiso       1.00
      H137          H  0.1569710  0.0117526  0.4936500    0.00000       Uiso       1.00
      H138          H  0.1728194  0.0256776  0.4774647    0.00000       Uiso       1.00
      H139          H  0.1492700  0.0047300  0.4717920    0.00000       Uiso       1.00
      C156          C  0.0995246  0.2386148  0.4204017    0.00000       Uiso       1.00
      H140          H  0.0835429  0.2287616  0.4202390    0.00000       Uiso       1.00
      H141          H  0.0997218  0.2468692  0.4043839    0.00000       Uiso       1.00
      H142          H  0.1054057  0.2499407  0.4279367    0.00000       Uiso       1.00
      C157          C  0.1366570  0.0548446  0.6614354    0.00000       Uiso       1.00
      H143          H  0.1426194  0.0708273  0.6515819    0.00000       Uiso       1.00
      H144          H  0.1496398  0.0489681  0.6727611    0.00000       Uiso       1.00
      H145          H  0.1286938  0.0546429  0.6696901    0.00000       Uiso       1.00
      C158          C  0.9157469  0.9975823  0.4405132    0.00000       Uiso       1.00
      H146          H  0.9255995  0.9974206  0.4345460    0.00000       Uiso       1.00
      H147          H  0.9044223  0.0051188  0.4275344    0.00000       Uiso       1.00
      H148          H  0.9074916  0.9815642  0.4484721    0.00000       Uiso       1.00
      C159          C  0.1023593  0.0847281  0.4171869    0.00000       Uiso       1.00
      H149          H  0.0964069  0.0858162  0.4264478    0.00000       Uiso       1.00
      H150          H  0.0893085  0.0793591  0.4044166    0.00000       Uiso       1.00
      H151          H  0.1128113  0.1000772  0.4107834    0.00000       Uiso       1.00
      C160          C  0.0696288  0.9943674  0.6004540    0.00000       Uiso       1.00
      H152          H  0.0685411  0.0036279  0.5841525    0.00000       Uiso       1.00
      H153          H  0.0542806  0.9879679  0.6019611    0.00000       Uiso       1.00
      H154          H  0.0749930  0.9815943  0.6055414    0.00000       Uiso       1.00
      C161          C  0.1599942  0.1776293  0.4748203    0.00000       Uiso       1.00
      H155          H  0.1507316  0.1613288  0.4807733    0.00000       Uiso       1.00
      H156          H  0.1727679  0.1827166  0.4878704    0.00000       Uiso       1.00
      H157          H  0.1663932  0.1791334  0.4643658    0.00000       Uiso       1.00
      C162          C  0.9767376  0.0519863  0.5075641    0.00000       Uiso       1.00
      H158          H  0.9930382  0.0579393  0.5086493    0.00000       Uiso       1.00
      H159          H  0.9752327  0.0415285  0.5229127    0.00000       Uiso       1.00
      H160          H  0.9716517  0.0650361  0.5022045    0.00000       Uiso       1.00
      C163          C  0.1079984  0.0601821  0.4689178    0.00000       Uiso       1.00
      C164          C  0.1201628  0.0618825  0.4921289    0.00000       Uiso       1.00
      C165          C  0.1101649  0.0667499  0.5022461    0.00000       Uiso       1.00
      C166          C  0.0855432  0.0636447  0.4561317    0.00000       Uiso       1.00
      C167          C  0.0755642  0.0685270  0.4662460    0.00000       Uiso       1.00
      C168          C  0.0872231  0.0693646  0.4898821    0.00000       Uiso       1.00
      H161          H  0.0451010  0.0336379  0.4917910    0.00000       Uiso       1.00
      H162          H  0.0756107  0.0626030  0.4381868    0.00000       Uiso       1.00
      C169          C  0.0941843  0.0460978  0.5789098    0.00000       Uiso       1.00
      C170          C  0.0907208  0.0333114  0.5657782    0.00000       Uiso       1.00
      C171          C  0.0858364  0.0434245  0.5408018    0.00000       Uiso       1.00
      C172          C  0.0924843  0.0693089  0.5661628    0.00000       Uiso       1.00
      C173          C  0.0876151  0.0794247  0.5411795    0.00000       Uiso       1.00
      C174          C  0.0849985  0.0670600  0.5279868    0.00000       Uiso       1.00
      H163          H  0.1207306  0.0689774  0.5196819    0.00000       Uiso       1.00
      H164          H  0.0917615  0.0153659  0.5748356    0.00000       Uiso       1.00
      C175          C  0.9982754  0.0463696  0.4829987    0.00000       Uiso       1.00
      C176          C  0.0114074  0.0688236  0.4864638    0.00000       Uiso       1.00
      C177          C  0.0363832  0.0788013  0.4913481    0.00000       Uiso       1.00
      C178          C  0.0110216  0.0342052  0.4846992    0.00000       Uiso       1.00
      C179          C  0.0360042  0.0442022  0.4895672    0.00000       Uiso       1.00
      C180          C  0.0491972  0.0671427  0.4921840    0.00000       Uiso       1.00
      H165          H  0.0575037  0.1092614  0.4564634    0.00000       Uiso       1.00
      H166          H  0.0023531  0.0787561  0.4854217    0.00000       Uiso       1.00
      C181          C  0.1082716  0.1560888  0.4691953    0.00000       Uiso       1.00
      C182          C  0.0850594  0.1433431  0.4570315    0.00000       Uiso       1.00
      C183          C  0.0749414  0.1183598  0.4670265    0.00000       Uiso       1.00
      C184          C  0.1210602  0.1429547  0.4916473    0.00000       Uiso       1.00
      C185          C  0.1109452  0.1179784  0.5016225    0.00000       Uiso       1.00
      C186          C  0.0873068  0.1051652  0.4899646    0.00000       Uiso       1.00
      H167          H  0.0853846  0.0968591  0.5320792    0.00000       Uiso       1.00
      H168          H  0.1390070  0.1520063  0.5015805    0.00000       Uiso       1.00
      C187          C  0.1453488  0.0595259  0.5064970    0.00000       Uiso       1.00
      H169          H  0.1509760  0.0610877  0.5216779    0.00000       Uiso       1.00
      H170          H  0.1560465  0.0717843  0.4979003    0.00000       Uiso       1.00
      H171          H  0.1445607  0.0442519  0.5087761    0.00000       Uiso       1.00
      C188          C  0.0706901  0.1565235  0.4318506    0.00000       Uiso       1.00
      H172          H  0.0555082  0.1454101  0.4262213    0.00000       Uiso       1.00
      H173          H  0.0792849  0.1635642  0.4211502    0.00000       Uiso       1.00
      H174          H  0.0684129  0.1687270  0.4326463    0.00000       Uiso       1.00
      C189          C  0.0948381  0.0836760  0.5793364    0.00000       Uiso       1.00
      H175          H  0.0932770  0.0988570  0.5682209    0.00000       Uiso       1.00
      H176          H  0.1101112  0.0859550  0.5915446    0.00000       Uiso       1.00
      H177          H  0.0825782  0.0750790  0.5863704    0.00000       Uiso       1.00
      C190          C  0.9978428  0.0090212  0.4823377    0.00000       Uiso       1.00
      H178          H  0.0089565  0.0033918  0.4838999    0.00000       Uiso       1.00
      H179          H  0.9856377  0.0098127  0.4670624    0.00000       Uiso       1.00
      H180          H  0.9908037  0.9983233  0.4945940    0.00000       Uiso       1.00
      C191          C  0.0515396  0.0733807  0.4507643    0.00000       Uiso       1.00
      H181          H  0.0469033  0.0763921  0.4597526    0.00000       Uiso       1.00
      H182          H  0.0395511  0.0597690  0.4461999    0.00000       Uiso       1.00
      H183          H  0.0533439  0.0869749  0.4367900    0.00000       Uiso       1.00
      C192          C  0.0809739  0.0279419  0.5274016    0.00000       Uiso       1.00
      H184          H  0.0779623  0.0369314  0.5107656    0.00000       Uiso       1.00
      H185          H  0.0673774  0.0139700  0.5295855    0.00000       Uiso       1.00
      H186          H  0.0945822  0.0233734  0.5335869    0.00000       Uiso       1.00
      C193          C  0.1264307  0.1045792  0.5256405    0.00000       Uiso       1.00
      H187          H  0.1174424  0.0879429  0.5302756    0.00000       Uiso       1.00
      H188          H  0.1310007  0.1107636  0.5376333    0.00000       Uiso       1.00
      H189          H  0.1404017  0.1067651  0.5238292    0.00000       Uiso       1.00
      C194          C  0.0497785  0.1028240  0.4962054    0.00000       Uiso       1.00
      H190          H  0.0664152  0.1074611  0.4992181    0.00000       Uiso       1.00
      H191          H  0.0475926  0.1010170  0.5098000    0.00000       Uiso       1.00
      H192          H  0.0435915  0.1148131  0.4825948    0.00000       Uiso       1.00
      C195          C  0.5424631  0.3101886  0.4047273    0.00000       Uiso       1.00
      C196          C  0.5406991  0.2977172  0.4277469    0.00000       Uiso       1.00
      C197          C  0.5369281  0.2728861  0.4383135    0.00000       Uiso       1.00
      C198          C  0.5406992  0.2977172  0.3924150    0.00000       Uiso       1.00
      C199          C  0.5368242  0.2728873  0.4028263    0.00000       Uiso       1.00
      C200          C  0.5348126  0.2600241  0.4259571    0.00000       Uiso       1.00
      H193          H  0.6072489  0.0331697  0.4647885    0.00000       Uiso       1.00
      H194          H  0.5421579  0.3076189  0.3736493    0.00000       Uiso       1.00
      C201          C  0.5952717  0.9819059  0.7330106    0.00000       Uiso       1.00
      C202          C  0.6075847  0.0049258  0.7205395    0.00000       Uiso       1.00
      C203          C  0.5971733  0.0154694  0.6957095    0.00000       Uiso       1.00
      C204          C  0.5722519  0.9695935  0.7205392    0.00000       Uiso       1.00
      C205          C  0.5616850  0.9800871  0.6957081    0.00000       Uiso       1.00
      C206          C  0.5740420  0.0031901  0.6828463    0.00000       Uiso       1.00
      H195          H  0.5352089  0.2636498  0.4559896    0.00000       Uiso       1.00
      H196          H  0.6263505  0.0152487  0.7304413    0.00000       Uiso       1.00
      C207          C  0.5952718  0.9819062  0.4575365    0.00000       Uiso       1.00
      C208          C  0.5722520  0.9695938  0.4593002    0.00000       Uiso       1.00
      C209          C  0.5617085  0.9800047  0.4631758    0.00000       Uiso       1.00
      C210          C  0.6075847  0.0049260  0.4593005    0.00000       Uiso       1.00
      C211          C  0.5970907  0.0154929  0.4630705    0.00000       Uiso       1.00
      C212          C  0.5739881  0.0031360  0.4651865    0.00000       Uiso       1.00
      H197          H  0.3135263  0.0419643  0.3927493    0.00000       Uiso       1.00
      H198          H  0.5619291  0.9508280  0.4578414    0.00000       Uiso       1.00
      C213          C  0.2669871  0.0347124  0.4047251    0.00000       Uiso       1.00
      C214          C  0.2794585  0.0364764  0.3924130    0.00000       Uiso       1.00
      C215          C  0.3042898  0.0402464  0.4029074    0.00000       Uiso       1.00
      C216          C  0.2794585  0.0364764  0.4277448    0.00000       Uiso       1.00
      C217          C  0.3042886  0.0403516  0.4382888    0.00000       Uiso       1.00
      C218          C  0.3171516  0.0423623  0.4260101    0.00000       Uiso       1.00
      H199          H  0.5440087  0.9699282  0.6864716    0.00000       Uiso       1.00
      C219          C  0.4999989  0.0771775  0.4999996    0.00000       Uiso       1.00
      H200          H  0.2695567  0.0350176  0.4380675    0.00000       Uiso       1.00
      C220          C  0.5426697  0.3110932  0.4416917    0.00000       Uiso       1.00
      H201          H  0.5411080  0.3001241  0.4569098    0.00000       Uiso       1.00
      H202          H  0.5302680  0.3179651  0.4328774    0.00000       Uiso       1.00
      H203          H  0.5578486  0.3234417  0.4438903    0.00000       Uiso       1.00
      C221          C  0.2660825  0.0345057  0.3670627    0.00000       Uiso       1.00
      H204          H  0.2770516  0.0360675  0.3612520    0.00000       Uiso       1.00
      H205          H  0.2592104  0.0469073  0.3566032    0.00000       Uiso       1.00
      H206          H  0.2537340  0.0193268  0.3676946    0.00000       Uiso       1.00
      C222          C  0.5583071  0.9442433  0.7339150    0.00000       Uiso       1.00
      H207          H  0.5430889  0.9384324  0.7229458    0.00000       Uiso       1.00
      H208          H  0.5561085  0.9448752  0.7462633    0.00000       Uiso       1.00
      H209          H  0.5671213  0.9337839  0.7407871    0.00000       Uiso       1.00
      C223          C  0.6329350  0.0188710  0.4573301    0.00000       Uiso       1.00
      H210          H  0.6387458  0.0340892  0.4588919    0.00000       Uiso       1.00
      H211          H  0.6323030  0.0210696  0.4421512    0.00000       Uiso       1.00
      H212          H  0.6433946  0.0100569  0.4697317    0.00000       Uiso       1.00
      C224          C  0.5351794  0.2599705  0.3886278    0.00000       Uiso       1.00
      H213          H  0.5325521  0.2434049  0.3977936    0.00000       Uiso       1.00
      H214          H  0.5497496  0.2668425  0.3854424    0.00000       Uiso       1.00
      H215          H  0.5222219  0.2616961  0.3738887    0.00000       Uiso       1.00
      C225          C  0.6113720  0.0409398  0.6827928    0.00000       Uiso       1.00
      H216          H  0.6022061  0.0457125  0.6662271    0.00000       Uiso       1.00
      H217          H  0.6261109  0.0409956  0.6845184    0.00000       Uiso       1.00
      H218          H  0.6145580  0.0518237  0.6896648    0.00000       Uiso       1.00
      C226          C  0.3172058  0.0419973  0.4637590    0.00000       Uiso       1.00
      H219          H  0.3337716  0.0446246  0.4685316    0.00000       Uiso       1.00
      H220          H  0.3103340  0.0274274  0.4746430    0.00000       Uiso       1.00
      H221          H  0.3154803  0.0549549  0.4638146    0.00000       Uiso       1.00
      C227          C  0.5362384  0.9658058  0.4648219    0.00000       Uiso       1.00
      H222          H  0.5314662  0.9749718  0.4674494    0.00000       Uiso       1.00
      H223          H  0.5361832  0.9510673  0.4777797    0.00000       Uiso       1.00
      H224          H  0.5253539  0.9626197  0.4502522    0.00000       Uiso       1.00
      C228          C  0.5303608  0.2334065  0.4369831    0.00000       Uiso       1.00
      C229          C  0.5416682  0.2228401  0.4616062    0.00000       Uiso       1.00
      C230          C  0.5374146  0.1979423  0.4718859    0.00000       Uiso       1.00
      C231          C  0.5146700  0.2182556  0.4229767    0.00000       Uiso       1.00
      C232          C  0.5103965  0.1933631  0.4332514    0.00000       Uiso       1.00
      C233          C  0.5216981  0.1827690  0.4578864    0.00000       Uiso       1.00
      H225          H  0.5574365  0.0679718  0.4532160    0.00000       Uiso       1.00
      H226          H  0.5052738  0.2256046  0.4040874    0.00000       Uiso       1.00
      C234          C  0.5630156  0.0143297  0.6562289    0.00000       Uiso       1.00
      C235          C  0.5770212  0.0277937  0.6410776    0.00000       Uiso       1.00
      C236          C  0.5667464  0.0381372  0.6161851    0.00000       Uiso       1.00
      C237          C  0.5383929  0.0115820  0.6456630    0.00000       Uiso       1.00
      C238          C  0.5281132  0.0219461  0.6207648    0.00000       Uiso       1.00
      C239          C  0.5421118  0.0353995  0.6055915    0.00000       Uiso       1.00
      H227          H  0.5467610  0.1906023  0.4907982    0.00000       Uiso       1.00
      H228          H  0.5959098  0.0299353  0.6484267    0.00000       Uiso       1.00
      C240          C  0.5628482  0.0141618  0.4696378    0.00000       Uiso       1.00
      C241          C  0.5493910  0.0001576  0.4853370    0.00000       Uiso       1.00
      C242          C  0.5390465  0.0104331  0.4896093    0.00000       Uiso       1.00
      C243          C  0.5655870  0.0387824  0.4583207    0.00000       Uiso       1.00
      C244          C  0.5552208  0.0490622  0.4625721    0.00000       Uiso       1.00
      C245          C  0.5417742  0.0350647  0.4782971    0.00000       Uiso       1.00
      H229          H  0.3865689  0.0303947  0.4425588    0.00000       Uiso       1.00
      H230          H  0.5472538  0.9812703  0.4947394    0.00000       Uiso       1.00
      C246          C  0.3437691  0.0468136  0.4371508    0.00000       Uiso       1.00
      C247          C  0.3543344  0.0354985  0.4344103    0.00000       Uiso       1.00
      C248          C  0.3792318  0.0397493  0.4447773    0.00000       Uiso       1.00
      C249          C  0.3589207  0.0625102  0.4506111    0.00000       Uiso       1.00
      C250          C  0.3838132  0.0667817  0.4609569    0.00000       Uiso       1.00
      C251          C  0.3944060  0.0554718  0.4582273    0.00000       Uiso       1.00
      H231          H  0.5092014  0.0197221  0.6134231    0.00000       Uiso       1.00
      H232          H  0.3515725  0.0719108  0.4527498    0.00000       Uiso       1.00
      C252          C  0.5594691  0.2386072  0.4776625    0.00000       Uiso       1.00
      H233          H  0.5654303  0.2287532  0.4936453    0.00000       Uiso       1.00
      H234          H  0.5515053  0.2468619  0.4774597    0.00000       Uiso       1.00
      H235          H  0.5724528  0.2499328  0.4717874    0.00000       Uiso       1.00
      C253          C  0.3385659  0.0176908  0.4203956    0.00000       Uiso       1.00
      H236          H  0.3484190  0.0117249  0.4202331    0.00000       Uiso       1.00
      H237          H  0.3303114  0.0256513  0.4043778    0.00000       Uiso       1.00
      H238          H  0.3272399  0.0047109  0.4279304    0.00000       Uiso       1.00
      C254          C  0.5223370  0.9975610  0.6614305    0.00000       Uiso       1.00
      H239          H  0.5063543  0.9973943  0.6515769    0.00000       Uiso       1.00
      H240          H  0.5282143  0.0050951  0.6727561    0.00000       Uiso       1.00
      H241          H  0.5225386  0.9815449  0.6696852    0.00000       Uiso       1.00
      C255          C  0.5795987  0.0548347  0.4405105    0.00000       Uiso       1.00
      H242          H  0.5797606  0.0708163  0.4345433    0.00000       Uiso       1.00
      H243          H  0.5720622  0.0489518  0.4275317    0.00000       Uiso       1.00
      H244          H  0.5956169  0.0546387  0.4484696    0.00000       Uiso       1.00
      C256          C  0.4924538  0.1776282  0.4171820    0.00000       Uiso       1.00
      H245          H  0.4913657  0.1613268  0.4264429    0.00000       Uiso       1.00
      H246          H  0.4978227  0.1827165  0.4044119    0.00000       Uiso       1.00
      H247          H  0.4771046  0.1791345  0.4107783    0.00000       Uiso       1.00
      C257          C  0.5828147  0.0519921  0.6004501    0.00000       Uiso       1.00
      H248          H  0.5735542  0.0579449  0.5841485    0.00000       Uiso       1.00
      H249          H  0.5892141  0.0415362  0.6019574    0.00000       Uiso       1.00
      H250          H  0.5955880  0.0650422  0.6055375    0.00000       Uiso       1.00
      C258          C  0.3995523  0.0847282  0.4748143    0.00000       Uiso       1.00
      H251          H  0.4158528  0.0858132  0.4807674    0.00000       Uiso       1.00
      H252          H  0.3944651  0.0793646  0.4878642    0.00000       Uiso       1.00
      H253          H  0.3980482  0.1000776  0.4643597    0.00000       Uiso       1.00
      C259          C  0.5251942  0.9943699  0.5075606    0.00000       Uiso       1.00
      H254          H  0.5192419  0.0036325  0.5086455    0.00000       Uiso       1.00
      H255          H  0.5356521  0.9879743  0.5229092    0.00000       Uiso       1.00
      H256          H  0.5121444  0.9815938  0.5022009    0.00000       Uiso       1.00
      C260          C  0.5170000  0.1560826  0.4689131    0.00000       Uiso       1.00
      C261          C  0.5152996  0.1433355  0.4921241    0.00000       Uiso       1.00
      C262          C  0.5104321  0.1183529  0.5022414    0.00000       Uiso       1.00
      C263          C  0.5135372  0.1429505  0.4561272    0.00000       Uiso       1.00
      C264          C  0.5086548  0.1179750  0.4662415    0.00000       Uiso       1.00
      C265          C  0.5078173  0.1051603  0.4898774    0.00000       Uiso       1.00
      H257          H  0.5435439  0.0968559  0.4917870    0.00000       Uiso       1.00
      H258          H  0.5145789  0.1520047  0.4381823    0.00000       Uiso       1.00
      C266          C  0.5310842  0.0463607  0.5789053    0.00000       Uiso       1.00
      C267          C  0.5438707  0.0688153  0.5657738    0.00000       Uiso       1.00
      C268          C  0.5337576  0.0787943  0.5407974    0.00000       Uiso       1.00
      C269          C  0.5078730  0.0341966  0.5661581    0.00000       Uiso       1.00
      C270          C  0.4977571  0.0441946  0.5411748    0.00000       Uiso       1.00
      C271          C  0.5101218  0.0671355  0.5279822    0.00000       Uiso       1.00
      H259          H  0.5082048  0.1092554  0.5196770    0.00000       Uiso       1.00
      H260          H  0.5618163  0.0787442  0.5748314    0.00000       Uiso       1.00
      C272          C  0.5308118  0.0460902  0.4829950    0.00000       Uiso       1.00
      C273          C  0.5083577  0.0333032  0.4864598    0.00000       Uiso       1.00
      C274          C  0.4983801  0.0434172  0.4913438    0.00000       Uiso       1.00
      C275          C  0.5429763  0.0693007  0.4846954    0.00000       Uiso       1.00
      C276          C  0.5329795  0.0794185  0.4895632    0.00000       Uiso       1.00
      C277          C  0.5100389  0.0670541  0.4921797    0.00000       Uiso       1.00
      H261          H  0.4679199  0.0689622  0.4564587    0.00000       Uiso       1.00
      H262          H  0.4984250  0.0153584  0.4854176    0.00000       Uiso       1.00
      C278          C  0.4210926  0.0601708  0.4691899    0.00000       Uiso       1.00
      C279          C  0.4338382  0.0618680  0.4570263    0.00000       Uiso       1.00
      C280          C  0.4588216  0.0667384  0.4670216    0.00000       Uiso       1.00
      C281          C  0.4342268  0.0636417  0.4916418    0.00000       Uiso       1.00
      C282          C  0.4592033  0.0685279  0.5016173    0.00000       Uiso       1.00
      C283          C  0.4720163  0.0693605  0.4899597    0.00000       Uiso       1.00
      H263          H  0.4803225  0.0336299  0.5320743    0.00000       Uiso       1.00
      H264          H  0.4251753  0.0626039  0.5015748    0.00000       Uiso       1.00
      C284          C  0.5176565  0.1565103  0.5064920    0.00000       Uiso       1.00
      H265          H  0.5160947  0.1453949  0.5216728    0.00000       Uiso       1.00
      H266          H  0.5053980  0.1635461  0.4978952    0.00000       Uiso       1.00
      H267          H  0.5329305  0.1687171  0.5087713    0.00000       Uiso       1.00
      C285          C  0.4206575  0.0594991  0.4318453    0.00000       Uiso       1.00
      H268          H  0.4317710  0.0610598  0.4262163    0.00000       Uiso       1.00
      H269          H  0.4136168  0.0717536  0.4211448    0.00000       Uiso       1.00
      H270          H  0.4084540  0.0442226  0.4326410    0.00000       Uiso       1.00
      C286          C  0.4935057  0.0090094  0.5793316    0.00000       Uiso       1.00
      H271          H  0.4783246  0.0033827  0.5682160    0.00000       Uiso       1.00
      H272          H  0.4912269  0.0097955  0.5915397    0.00000       Uiso       1.00
      H273          H  0.5021021  0.9983125  0.5863658    0.00000       Uiso       1.00
      C287          C  0.5681605  0.0836673  0.4823343    0.00000       Uiso       1.00
      H274          H  0.5737900  0.0988485  0.4838964    0.00000       Uiso       1.00
      H275          H  0.5673689  0.0859459  0.4670590    0.00000       Uiso       1.00
      H276          H  0.5788583  0.0750703  0.4945907    0.00000       Uiso       1.00
      C288          C  0.5038009  0.1045782  0.4507599    0.00000       Uiso       1.00
      H277          H  0.5007895  0.0879421  0.4597483    0.00000       Uiso       1.00
      H278          H  0.5174126  0.1107657  0.4461957    0.00000       Uiso       1.00
      H279          H  0.4902066  0.1067624  0.4367855    0.00000       Uiso       1.00
      C289          C  0.5492402  0.1028145  0.5273973    0.00000       Uiso       1.00
      H280          H  0.5402507  0.1074493  0.5107613    0.00000       Uiso       1.00
      H281          H  0.5632120  0.1010059  0.5295815    0.00000       Uiso       1.00
      H282          H  0.5538088  0.1148061  0.5335826    0.00000       Uiso       1.00
      C290          C  0.4726027  0.0733948  0.5256353    0.00000       Uiso       1.00
      H283          H  0.4892390  0.0764078  0.5302706    0.00000       Uiso       1.00
      H284          H  0.4664182  0.0597876  0.5376280    0.00000       Uiso       1.00
      H285          H  0.4704168  0.0869914  0.5238238    0.00000       Uiso       1.00
      C291          C  0.4743573  0.0279324  0.4962009    0.00000       Uiso       1.00
      H286          H  0.4697202  0.0369193  0.4992134    0.00000       Uiso       1.00
      H287          H  0.4761643  0.0139589  0.5097954    0.00000       Uiso       1.00
      H288          H  0.4623681  0.0233667  0.4825902    0.00000       Uiso       1.00
      C292          C  0.2669870  0.4047250  0.0347126    0.00000       Uiso       1.00
      C293          C  0.2794584  0.4277447  0.0364767    0.00000       Uiso       1.00
      C294          C  0.3042898  0.4383115  0.0402479    0.00000       Uiso       1.00
      C295          C  0.2794584  0.3924128  0.0364767    0.00000       Uiso       1.00
      C296          C  0.3042886  0.4028243  0.0403519    0.00000       Uiso       1.00
      C297          C  0.3171518  0.4259553  0.0423635    0.00000       Uiso       1.00
      H289          H  0.5440081  0.4647874  0.9699301    0.00000       Uiso       1.00
      H290          H  0.2695567  0.3736470  0.0350179    0.00000       Uiso       1.00
      C298          C  0.5952718  0.7330100  0.9819068    0.00000       Uiso       1.00
      C299          C  0.5722520  0.7205386  0.9695943    0.00000       Uiso       1.00
      C300          C  0.5617082  0.6957085  0.9800057    0.00000       Uiso       1.00
      C301          C  0.6075848  0.7205393  0.0049262    0.00000       Uiso       1.00
      C302          C  0.5970910  0.6957082  0.0154929    0.00000       Uiso       1.00
      C303          C  0.5739881  0.6828462  0.0031364    0.00000       Uiso       1.00
      H291          H  0.3135261  0.4559877  0.0419671    0.00000       Uiso       1.00
      H292          H  0.5619292  0.7304401  0.9508286    0.00000       Uiso       1.00
      C304          C  0.5952719  0.4575358  0.9819070    0.00000       Uiso       1.00
      C305          C  0.6075848  0.4593004  0.0049263    0.00000       Uiso       1.00
      C306          C  0.5971737  0.4631760  0.0154696    0.00000       Uiso       1.00
      C307          C  0.5722520  0.4592996  0.9695945    0.00000       Uiso       1.00
      C308          C  0.5616850  0.4630696  0.9800884    0.00000       Uiso       1.00
      C309          C  0.5740424  0.4651864  0.0031905    0.00000       Uiso       1.00
      H293          H  0.5352115  0.3927509  0.2636499    0.00000       Uiso       1.00
      H294          H  0.6263506  0.4578418  0.0152492    0.00000       Uiso       1.00
      C310          C  0.5424631  0.4047271  0.3101888    0.00000       Uiso       1.00
      C311          C  0.5406992  0.3924148  0.2977175    0.00000       Uiso       1.00
      C312          C  0.5369294  0.4029091  0.2728863    0.00000       Uiso       1.00
      C313          C  0.5406991  0.4277467  0.2977175    0.00000       Uiso       1.00
      C314          C  0.5368241  0.4382904  0.2728875    0.00000       Uiso       1.00
      C315          C  0.5348135  0.4260116  0.2600246    0.00000       Uiso       1.00
      H295          H  0.6072499  0.6864720  0.0331692    0.00000       Uiso       1.00
      C316          C  0.4999996  0.4999995  0.0771785    0.00000       Uiso       1.00
      H296          H  0.5421579  0.4380695  0.3076192    0.00000       Uiso       1.00
      C317          C  0.2660824  0.4416893  0.0345060    0.00000       Uiso       1.00
      H297          H  0.2770515  0.4569075  0.0360678    0.00000       Uiso       1.00
      H298          H  0.2592103  0.4328751  0.0469075    0.00000       Uiso       1.00
      H299          H  0.2537339  0.4438877  0.0193271    0.00000       Uiso       1.00
      C318          C  0.5426698  0.3670647  0.3110934    0.00000       Uiso       1.00
      H300          H  0.5411081  0.3612540  0.3001243    0.00000       Uiso       1.00
      H301          H  0.5302681  0.3566052  0.3179654    0.00000       Uiso       1.00
      H302          H  0.5578487  0.3676968  0.3234420    0.00000       Uiso       1.00
      C319          C  0.6329351  0.7339154  0.0188712    0.00000       Uiso       1.00
      H303          H  0.6387459  0.7229465  0.0340893    0.00000       Uiso       1.00
      H304          H  0.6323031  0.7462637  0.0210697    0.00000       Uiso       1.00
      H305          H  0.6433946  0.7407876  0.0100571    0.00000       Uiso       1.00
      C320          C  0.5583072  0.4573289  0.9442442    0.00000       Uiso       1.00
      H306          H  0.5430890  0.4588905  0.9384333    0.00000       Uiso       1.00
      H307          H  0.5561087  0.4421500  0.9448763    0.00000       Uiso       1.00
      H308          H  0.5671214  0.4697305  0.9337849    0.00000       Uiso       1.00
      C321          C  0.3172054  0.3886259  0.0419968    0.00000       Uiso       1.00
      H309          H  0.3337712  0.3977919  0.0446241    0.00000       Uiso       1.00
      H310          H  0.3103335  0.3854403  0.0274266    0.00000       Uiso       1.00
      H311          H  0.3154798  0.3738870  0.0549541    0.00000       Uiso       1.00
      C322          C  0.5362377  0.6827916  0.9658068    0.00000       Uiso       1.00
      H312          H  0.5314650  0.6662259  0.9749726    0.00000       Uiso       1.00
      H313          H  0.5361821  0.6845170  0.9510680    0.00000       Uiso       1.00
      H314          H  0.5253538  0.6896635  0.9626207    0.00000       Uiso       1.00
      C323          C  0.5351785  0.4637605  0.2599704    0.00000       Uiso       1.00
      H315          H  0.5325513  0.4685330  0.2434047    0.00000       Uiso       1.00
      H316          H  0.5497484  0.4746447  0.2668422    0.00000       Uiso       1.00
      H317          H  0.5222208  0.4638160  0.2616958    0.00000       Uiso       1.00
      C324          C  0.6113724  0.4648224  0.0409396    0.00000       Uiso       1.00
      H318          H  0.6022063  0.4674499  0.0457117    0.00000       Uiso       1.00
      H319          H  0.6261112  0.4777803  0.0409949    0.00000       Uiso       1.00
      H320          H  0.6145585  0.4502528  0.0518241    0.00000       Uiso       1.00
      C325          C  0.3437696  0.4369815  0.0468155    0.00000       Uiso       1.00
      C326          C  0.3543361  0.4616046  0.0355082    0.00000       Uiso       1.00
      C327          C  0.3792342  0.4718845  0.0397621    0.00000       Uiso       1.00
      C328          C  0.3589205  0.4229753  0.0625064    0.00000       Uiso       1.00
      C329          C  0.3838131  0.4332503  0.0667800    0.00000       Uiso       1.00
      C330          C  0.3944074  0.4578853  0.0554786    0.00000       Uiso       1.00
      H321          H  0.5092059  0.4532156  0.0197414    0.00000       Uiso       1.00
      H322          H  0.3515714  0.4040861  0.0719023    0.00000       Uiso       1.00
      C331          C  0.5628483  0.6562287  0.0141627    0.00000       Uiso       1.00
      C332          C  0.5493842  0.6410773  0.0001571    0.00000       Uiso       1.00
      C333          C  0.5390407  0.6161848  0.0104318    0.00000       Uiso       1.00
      C334          C  0.5655957  0.6456631  0.0387852    0.00000       Uiso       1.00
      C335          C  0.5552316  0.6207649  0.0490648    0.00000       Uiso       1.00
      C336          C  0.5417781  0.6055914  0.0350662    0.00000       Uiso       1.00
      H323          H  0.3865742  0.4907968  0.0304157    0.00000       Uiso       1.00
      H324          H  0.5472423  0.6484256  0.9812690    0.00000       Uiso       1.00
      C337          C  0.5630164  0.4696377  0.0143303    0.00000       Uiso       1.00
      C338          C  0.5770206  0.4853371  0.0277874    0.00000       Uiso       1.00
      C339          C  0.5667449  0.4896094  0.0381317    0.00000       Uiso       1.00
      C340          C  0.5383956  0.4583204  0.0115912    0.00000       Uiso       1.00
      C341          C  0.5281157  0.4625718  0.0219573    0.00000       Uiso       1.00
      C342          C  0.5421131  0.4782969  0.0354039    0.00000       Uiso       1.00
      H325          H  0.5467818  0.4425599  0.1906079    0.00000       Uiso       1.00
      H326          H  0.5959079  0.4947397  0.0299241    0.00000       Uiso       1.00
      C343          C  0.5303624  0.4371521  0.2334073    0.00000       Uiso       1.00
      C344          C  0.5416777  0.4344116  0.2228422    0.00000       Uiso       1.00
      C345          C  0.5374271  0.4447784  0.1979448    0.00000       Uiso       1.00
      C346          C  0.5146658  0.4506121  0.2182557    0.00000       Uiso       1.00
      C347          C  0.5103945  0.4609577  0.1933633    0.00000       Uiso       1.00
      C348          C  0.5217046  0.4582282  0.1827707    0.00000       Uiso       1.00
      H327          H  0.5574555  0.6134233  0.0679765    0.00000       Uiso       1.00
      H328          H  0.5052651  0.4527509  0.2256037    0.00000       Uiso       1.00
      C349          C  0.3385691  0.4776606  0.0177074    0.00000       Uiso       1.00
      H329          H  0.3484232  0.4936434  0.0117463    0.00000       Uiso       1.00
      H330          H  0.3303142  0.4774579  0.0256711    0.00000       Uiso       1.00
      H331          H  0.3272435  0.4717853  0.0047236    0.00000       Uiso       1.00
      C350          C  0.5594854  0.4203972  0.2386107    0.00000       Uiso       1.00
      H332          H  0.5654515  0.4202347  0.2287578    0.00000       Uiso       1.00
      H333          H  0.5515249  0.4043793  0.2468651    0.00000       Uiso       1.00
      H334          H  0.5724653  0.4279322  0.2499367    0.00000       Uiso       1.00
      C351          C  0.5796165  0.6614308  0.0548405    0.00000       Uiso       1.00
      H335          H  0.5797833  0.6515772  0.0708231    0.00000       Uiso       1.00
      H336          H  0.5720827  0.6727564  0.0489638    0.00000       Uiso       1.00
      H337          H  0.5956329  0.6696857  0.0546390    0.00000       Uiso       1.00
      C352          C  0.5223427  0.4405095  0.9975798    0.00000       Uiso       1.00
      H338          H  0.5063611  0.4345421  0.9974179    0.00000       Uiso       1.00
      H339          H  0.5282262  0.4275313  0.0051160    0.00000       Uiso       1.00
      H340          H  0.5225389  0.4484684  0.9815618    0.00000       Uiso       1.00
      C353          C  0.3995481  0.4171811  0.0847226    0.00000       Uiso       1.00
      H341          H  0.4158496  0.4264422  0.0858109    0.00000       Uiso       1.00
      H342          H  0.3944597  0.4044109  0.0793537    0.00000       Uiso       1.00
      H343          H  0.3980416  0.4107775  0.1000717    0.00000       Uiso       1.00
      C354          C  0.5251852  0.6004490  0.9943638    0.00000       Uiso       1.00
      H344          H  0.5192329  0.5841480  0.0036238    0.00000       Uiso       1.00
      H345          H  0.5356413  0.6019563  0.9879646    0.00000       Uiso       1.00
      H346          H  0.5121351  0.6055362  0.9815906    0.00000       Uiso       1.00
      C355          C  0.4924480  0.4748148  0.1776242    0.00000       Uiso       1.00
      H347          H  0.4913631  0.4807679  0.1613238    0.00000       Uiso       1.00
      H348          H  0.4978116  0.4878648  0.1827114    0.00000       Uiso       1.00
      H349          H  0.4770984  0.4643601  0.1791281    0.00000       Uiso       1.00
      C356          C  0.5828080  0.5075609  0.0519834    0.00000       Uiso       1.00
      H350          H  0.5735453  0.5086458  0.0579362    0.00000       Uiso       1.00
      H351          H  0.5892037  0.5229095  0.0415257    0.00000       Uiso       1.00
      H352          H  0.5955841  0.5022014  0.0650333    0.00000       Uiso       1.00
      C357          C  0.4210940  0.4689122  0.0601768    0.00000       Uiso       1.00
      C358          C  0.4338412  0.4921233  0.0618773    0.00000       Uiso       1.00
      C359          C  0.4588239  0.5022408  0.0667450    0.00000       Uiso       1.00
      C360          C  0.4342262  0.4561264  0.0636398    0.00000       Uiso       1.00
      C361          C  0.4592019  0.4662409  0.0685223    0.00000       Uiso       1.00
      C362          C  0.4720166  0.4898770  0.0693599    0.00000       Uiso       1.00
      H353          H  0.4803214  0.4917864  0.0336336    0.00000       Uiso       1.00
      H354          H  0.4251719  0.4381815  0.0625980    0.00000       Uiso       1.00
      C363          C  0.5308168  0.5789052  0.0460936    0.00000       Uiso       1.00
      C364          C  0.5083622  0.5657734  0.0333070    0.00000       Uiso       1.00
      C365          C  0.4983830  0.5407969  0.0434200    0.00000       Uiso       1.00
      C366          C  0.5429809  0.5661582  0.0693048    0.00000       Uiso       1.00
      C367          C  0.5329827  0.5411750  0.0794205    0.00000       Uiso       1.00
      C368          C  0.5100418  0.5279821  0.0670557    0.00000       Uiso       1.00
      H355          H  0.4679214  0.5196766  0.0689724    0.00000       Uiso       1.00
      H356          H  0.4984334  0.5748307  0.0153615    0.00000       Uiso       1.00
      C369          C  0.5310874  0.4829949  0.0463661    0.00000       Uiso       1.00
      C370          C  0.5438743  0.4864599  0.0688201    0.00000       Uiso       1.00
      C371          C  0.5337601  0.4913439  0.0787975    0.00000       Uiso       1.00
      C372          C  0.5078769  0.4846950  0.0342015    0.00000       Uiso       1.00
      C373          C  0.4977589  0.4895628  0.0441981    0.00000       Uiso       1.00
      C374          C  0.5101232  0.4921796  0.0671386    0.00000       Uiso       1.00
      H357          H  0.5082147  0.4564588  0.1092573    0.00000       Uiso       1.00
      H358          H  0.5618192  0.4854180  0.0787528    0.00000       Uiso       1.00
      C375          C  0.5170057  0.4691904  0.1560843    0.00000       Uiso       1.00
      C376          C  0.5153086  0.4570267  0.1433388    0.00000       Uiso       1.00
      C377          C  0.5104384  0.4670218  0.1183556    0.00000       Uiso       1.00
      C378          C  0.5135349  0.4916423  0.1429501    0.00000       Uiso       1.00
      C379          C  0.5086489  0.5016176  0.1179738    0.00000       Uiso       1.00
      C380          C  0.5078164  0.4899598  0.1051608    0.00000       Uiso       1.00
      H359          H  0.5435473  0.5320747  0.0968551    0.00000       Uiso       1.00
      H360          H  0.5145727  0.5015754  0.1520015    0.00000       Uiso       1.00
      C381          C  0.4206663  0.5064910  0.0595203    0.00000       Uiso       1.00
      H361          H  0.4317817  0.5216719  0.0610822    0.00000       Uiso       1.00
      H362          H  0.4136303  0.4978943  0.0717786    0.00000       Uiso       1.00
      H363          H  0.4084595  0.5087701  0.0442463    0.00000       Uiso       1.00
      C382          C  0.5176775  0.4318460  0.1565194    0.00000       Uiso       1.00
      H364          H  0.5161169  0.4262169  0.1454060    0.00000       Uiso       1.00
      H365          H  0.5054229  0.4211454  0.1635599    0.00000       Uiso       1.00
      H366          H  0.5329540  0.4326419  0.1687229    0.00000       Uiso       1.00
      C383          C  0.5681680  0.5793321  0.0836721    0.00000       Uiso       1.00
      H367          H  0.5737947  0.5682166  0.0988531    0.00000       Uiso       1.00
      H368          H  0.5673820  0.5915402  0.0859509    0.00000       Uiso       1.00
      H369          H  0.5788651  0.5863662  0.0750753    0.00000       Uiso       1.00
      C384          C  0.4935103  0.4823336  0.0090174    0.00000       Uiso       1.00
      H370          H  0.4783290  0.4838955  0.0033878    0.00000       Uiso       1.00
      H371          H  0.4912317  0.4670584  0.0098090    0.00000       Uiso       1.00
      H372          H  0.5021069  0.4945894  0.9983201    0.00000       Uiso       1.00
      C385          C  0.4725987  0.4507595  0.0733763    0.00000       Uiso       1.00
      H373          H  0.4892350  0.4597480  0.0763878    0.00000       Uiso       1.00
      H374          H  0.4664113  0.4461952  0.0597646    0.00000       Uiso       1.00
      H375          H  0.4704144  0.4367852  0.0869705    0.00000       Uiso       1.00
      C386          C  0.4743627  0.5273966  0.0279373    0.00000       Uiso       1.00
      H376          H  0.4697279  0.5107607  0.0369268    0.00000       Uiso       1.00
      H377          H  0.4761715  0.5295807  0.0139656    0.00000       Uiso       1.00
      H378          H  0.4623711  0.5335817  0.0233686    0.00000       Uiso       1.00
      C387          C  0.5037820  0.5256354  0.1045745    0.00000       Uiso       1.00
      H379          H  0.5007691  0.5302705  0.0879382    0.00000       Uiso       1.00
      H380          H  0.5173893  0.5376282  0.1107590    0.00000       Uiso       1.00
      H381          H  0.4901853  0.5238238  0.1067602    0.00000       Uiso       1.00
      C388          C  0.5492449  0.4962013  0.1028202    0.00000       Uiso       1.00
      H382          H  0.5402579  0.4992138  0.1074572    0.00000       Uiso       1.00
      H383          H  0.5632185  0.5097960  0.1010134    0.00000       Uiso       1.00
      H384          H  0.5538105  0.4825908  0.1148094    0.00000       Uiso       1.00
      C389          C  0.1724557  0.4047322  0.3101939    0.00000       Uiso       1.00
      C390          C  0.1847681  0.4277519  0.2977227    0.00000       Uiso       1.00
      C391          C  0.1742744  0.4383184  0.2728915    0.00000       Uiso       1.00
      C392          C  0.1494359  0.3924197  0.2977225    0.00000       Uiso       1.00
      C393          C  0.1388922  0.4028310  0.2728924    0.00000       Uiso       1.00
      C394          C  0.1511716  0.4259619  0.2600294    0.00000       Uiso       1.00
      H385          H  0.8907099  0.4647907  0.0331723    0.00000       Uiso       1.00
      H386          H  0.1391131  0.3736539  0.3076240    0.00000       Uiso       1.00
      C395          C  0.1196460  0.7330143  0.9819110    0.00000       Uiso       1.00
      C396          C  0.1178826  0.7205434  0.0049303    0.00000       Uiso       1.00
      C397          C  0.1140078  0.6957135  0.0154740    0.00000       Uiso       1.00
      C398          C  0.1178821  0.7205430  0.9695987    0.00000       Uiso       1.00
      C399          C  0.1141115  0.6957119  0.9800924    0.00000       Uiso       1.00
      C400          C  0.1119967  0.6828506  0.0031948    0.00000       Uiso       1.00
      H387          H  0.1844335  0.4559946  0.2636554    0.00000       Uiso       1.00
      H388          H  0.1193414  0.7304451  0.0152530    0.00000       Uiso       1.00
      C401          C  0.8441702  0.4575379  0.9819089    0.00000       Uiso       1.00
      C402          C  0.8566416  0.4593019  0.9695967    0.00000       Uiso       1.00
      C403          C  0.8814719  0.4631778  0.9800080    0.00000       Uiso       1.00
      C404          C  0.8566421  0.4593025  0.0049283    0.00000       Uiso       1.00
      C405          C  0.8814734  0.4630727  0.0154955    0.00000       Uiso       1.00
      C406          C  0.8943353  0.4651890  0.0031389    0.00000       Uiso       1.00
      H389          H  0.1211920  0.3927557  0.0419711    0.00000       Uiso       1.00
      H390          H  0.8467399  0.4578431  0.9508310    0.00000       Uiso       1.00
      C407          C  0.1724558  0.4047323  0.0347199    0.00000       Uiso       1.00
      C408          C  0.1494360  0.3924199  0.0364837    0.00000       Uiso       1.00
      C409          C  0.1388689  0.4029141  0.0402533    0.00000       Uiso       1.00
      C410          C  0.1847682  0.4277521  0.0364839    0.00000       Uiso       1.00
      C411          C  0.1743569  0.4382957  0.0403589    0.00000       Uiso       1.00
      C412          C  0.1512256  0.4260167  0.0423693    0.00000       Uiso       1.00
      H391          H  0.1123926  0.6864756  0.9699336    0.00000       Uiso       1.00
      C413          C  0.0771810  0.5000042  0.0771824    0.00000       Uiso       1.00
      H392          H  0.2035340  0.4380750  0.0350253    0.00000       Uiso       1.00
      C414          C  0.2101184  0.4416969  0.3110989    0.00000       Uiso       1.00
      H393          H  0.2159292  0.4569150  0.3001299    0.00000       Uiso       1.00
      H394          H  0.2205779  0.4328828  0.3179710    0.00000       Uiso       1.00
      H395          H  0.2094864  0.4438953  0.3234472    0.00000       Uiso       1.00
      C415          C  0.1354912  0.3670696  0.0345130    0.00000       Uiso       1.00
      H396          H  0.1202729  0.3612588  0.0360745    0.00000       Uiso       1.00
      H397          H  0.1443054  0.3566103  0.0469146    0.00000       Uiso       1.00
      H398          H  0.1332927  0.3677016  0.0193341    0.00000       Uiso       1.00
      C416          C  0.1198527  0.7339189  0.9442486    0.00000       Uiso       1.00
      H399          H  0.1182910  0.7229498  0.9384379    0.00000       Uiso       1.00
      H400          H  0.1350317  0.7462674  0.9448808    0.00000       Uiso       1.00
      H401          H  0.1074511  0.7407909  0.9337891    0.00000       Uiso       1.00
      C417          C  0.8432661  0.4573318  0.0188730    0.00000       Uiso       1.00
      H402          H  0.8542352  0.4588935  0.0340912    0.00000       Uiso       1.00
      H403          H  0.8309177  0.4421528  0.0210714    0.00000       Uiso       1.00
      H404          H  0.8363940  0.4697332  0.0100588    0.00000       Uiso       1.00
      C418          C  0.1134216  0.3886323  0.2599755    0.00000       Uiso       1.00
      H405          H  0.1086489  0.3977980  0.2434098    0.00000       Uiso       1.00
      H406          H  0.1025377  0.3854467  0.2668473    0.00000       Uiso       1.00
      H407          H  0.1133656  0.3738933  0.2617011    0.00000       Uiso       1.00
      C419          C  0.1123627  0.6827968  0.0409442    0.00000       Uiso       1.00
      H408          H  0.1097356  0.6662311  0.0457170    0.00000       Uiso       1.00
      H409          H  0.0994049  0.6845221  0.0409998    0.00000       Uiso       1.00
      H410          H  0.1269326  0.6896688  0.0518282    0.00000       Uiso       1.00
      C420          C  0.1885556  0.4637659  0.0420046    0.00000       Uiso       1.00
      H411          H  0.1793896  0.4685384  0.0446317    0.00000       Uiso       1.00
      H412          H  0.1917416  0.4746500  0.0274348    0.00000       Uiso       1.00
      H413          H  0.2032944  0.4638216  0.0549623    0.00000       Uiso       1.00
      C421          C  0.8943895  0.4648242  0.9658095    0.00000       Uiso       1.00
      H414          H  0.9109554  0.4674519  0.9749755    0.00000       Uiso       1.00
      H415          H  0.8926638  0.4777820  0.9510708    0.00000       Uiso       1.00
      H416          H  0.8875182  0.4502546  0.9626233    0.00000       Uiso       1.00
      C422          C  0.1400318  0.4369879  0.2334117    0.00000       Uiso       1.00
      C423          C  0.1427809  0.4616109  0.2228453    0.00000       Uiso       1.00
      C424          C  0.1324164  0.4718906  0.1979473    0.00000       Uiso       1.00
      C425          C  0.1265652  0.4229814  0.2182608    0.00000       Uiso       1.00
      C426          C  0.1162210  0.4332562  0.1933683    0.00000       Uiso       1.00
      C427          C  0.1189602  0.4578911  0.1827741    0.00000       Uiso       1.00
      H417          H  0.9637529  0.4532192  0.0679754    0.00000       Uiso       1.00
      H418          H  0.1244211  0.4040923  0.2256098    0.00000       Uiso       1.00
      C428          C  0.1075454  0.6562332  0.0143344    0.00000       Uiso       1.00
      C429          C  0.0918523  0.6410816  0.0277982    0.00000       Uiso       1.00
      C430          C  0.0875781  0.6161892  0.0381417    0.00000       Uiso       1.00
      C431          C  0.1188548  0.6456676  0.0115871    0.00000       Uiso       1.00
      C432          C  0.1146004  0.6207694  0.0219511    0.00000       Uiso       1.00
      C433          C  0.0988818  0.6055959  0.0354043    0.00000       Uiso       1.00
      H419          H  0.1346421  0.4908028  0.1906073    0.00000       Uiso       1.00
      H420          H  0.0824540  0.6484304  0.0299396    0.00000       Uiso       1.00
      C434          C  0.9209527  0.4696406  0.0141650    0.00000       Uiso       1.00
      C435          C  0.9361050  0.4853400  0.0001610    0.00000       Uiso       1.00
      C436          C  0.9609976  0.4896126  0.0104367    0.00000       Uiso       1.00
      C437          C  0.9315173  0.4583236  0.0387856    0.00000       Uiso       1.00
      C438          C  0.9564150  0.4625752  0.0490657    0.00000       Uiso       1.00
      C439          C  0.9715894  0.4783004  0.0350685    0.00000       Uiso       1.00
      H421          H  0.0863883  0.4425644  0.0304006    0.00000       Uiso       1.00
      H422          H  0.9287563  0.4947419  0.9812741    0.00000       Uiso       1.00
      C440          C  0.1401999  0.4371572  0.0468203    0.00000       Uiso       1.00
      C441          C  0.1155787  0.4344163  0.0355049    0.00000       Uiso       1.00
      C442          C  0.1052988  0.4447831  0.0397554    0.00000       Uiso       1.00
      C443          C  0.1542051  0.4506174  0.0625168    0.00000       Uiso       1.00
      C444          C  0.1439296  0.4609629  0.0667881    0.00000       Uiso       1.00
      C445          C  0.1192971  0.4582331  0.0554779    0.00000       Uiso       1.00
      H423          H  0.1239468  0.6134280  0.0197273    0.00000       Uiso       1.00
      H424          H  0.1730929  0.4527563  0.0719177    0.00000       Uiso       1.00
      C446          C  0.1568032  0.4776671  0.2386123    0.00000       Uiso       1.00
      H425          H  0.1569709  0.4936499  0.2287583    0.00000       Uiso       1.00
      H426          H  0.1728193  0.4774646  0.2468672    0.00000       Uiso       1.00
      H427          H  0.1492698  0.4717918  0.2499377    0.00000       Uiso       1.00
      C447          C  0.0995248  0.4204017  0.0176971    0.00000       Uiso       1.00
      H428          H  0.0835431  0.4202389  0.0117310    0.00000       Uiso       1.00
      H429          H  0.0997220  0.4043839  0.0256577    0.00000       Uiso       1.00
      H430          H  0.1054059  0.4279366  0.0047174    0.00000       Uiso       1.00
      C448          C  0.1366565  0.6614348  0.9975668    0.00000       Uiso       1.00
      H431          H  0.1426189  0.6515813  0.9974002    0.00000       Uiso       1.00
      H432          H  0.1496399  0.6727610  0.0051004    0.00000       Uiso       1.00
      H433          H  0.1286933  0.6696895  0.9815506    0.00000       Uiso       1.00
      C449          C  0.9157476  0.4405131  0.0548377    0.00000       Uiso       1.00
      H434          H  0.9256001  0.4345460  0.0708193    0.00000       Uiso       1.00
      H435          H  0.9044223  0.4275343  0.0489547    0.00000       Uiso       1.00
      H436          H  0.9074922  0.4484721  0.0546415    0.00000       Uiso       1.00
      C450          C  0.1023593  0.4171868  0.1776334    0.00000       Uiso       1.00
      H437          H  0.0964069  0.4264477  0.1613319    0.00000       Uiso       1.00
      H438          H  0.0893085  0.4044165  0.1827216    0.00000       Uiso       1.00
      H439          H  0.1128112  0.4107833  0.1791399    0.00000       Uiso       1.00
      C451          C  0.0696295  0.6004539  0.0519964    0.00000       Uiso       1.00
      H440          H  0.0685411  0.5841524  0.0579492    0.00000       Uiso       1.00
      H441          H  0.0542813  0.6019611  0.0415403    0.00000       Uiso       1.00
      H442          H  0.0749936  0.6055413  0.0650464    0.00000       Uiso       1.00
      C452          C  0.1599943  0.4748203  0.0847346    0.00000       Uiso       1.00
      H443          H  0.1507317  0.4807733  0.0858194    0.00000       Uiso       1.00
      H444          H  0.1727680  0.4878704  0.0793711    0.00000       Uiso       1.00
      H445          H  0.1663933  0.4643658  0.1000841    0.00000       Uiso       1.00
      C453          C  0.9767371  0.5075635  0.9943742    0.00000       Uiso       1.00
      H446          H  0.9930382  0.5086492  0.0036366    0.00000       Uiso       1.00
      H447          H  0.9752322  0.5229122  0.9879786    0.00000       Uiso       1.00
      H448          H  0.9716513  0.5022039  0.9815983    0.00000       Uiso       1.00
      C454          C  0.1079984  0.4689177  0.1560876    0.00000       Uiso       1.00
      C455          C  0.1201628  0.4921289  0.1433406    0.00000       Uiso       1.00
      C456          C  0.1101650  0.5022461  0.1183580    0.00000       Uiso       1.00
      C457          C  0.0855432  0.4561316  0.1429554    0.00000       Uiso       1.00
      C458          C  0.0755643  0.4662459  0.1179798    0.00000       Uiso       1.00
      C459          C  0.0872231  0.4898820  0.1051652    0.00000       Uiso       1.00
      H449          H  0.0451010  0.4917909  0.0968602    0.00000       Uiso       1.00
      H450          H  0.0756107  0.4381867  0.1520095    0.00000       Uiso       1.00
      C460          C  0.0941844  0.5789098  0.0463656    0.00000       Uiso       1.00
      C461          C  0.0907208  0.5657781  0.0688200    0.00000       Uiso       1.00
      C462          C  0.0858365  0.5408017  0.0787990    0.00000       Uiso       1.00
      C463          C  0.0924844  0.5661627  0.0342016    0.00000       Uiso       1.00
      C464          C  0.0876151  0.5411795  0.0441996    0.00000       Uiso       1.00
      C465          C  0.0849986  0.5279868  0.0671404    0.00000       Uiso       1.00
      H451          H  0.1207306  0.5196818  0.1092607    0.00000       Uiso       1.00
      H452          H  0.0917614  0.5748355  0.0787488    0.00000       Uiso       1.00
      C466          C  0.9982755  0.4829986  0.0460942    0.00000       Uiso       1.00
      C467          C  0.0114074  0.4864638  0.0333076    0.00000       Uiso       1.00
      C468          C  0.0363833  0.4913481  0.0434218    0.00000       Uiso       1.00
      C469          C  0.0110216  0.4846991  0.0693047    0.00000       Uiso       1.00
      C470          C  0.0360043  0.4895672  0.0794228    0.00000       Uiso       1.00
      C471          C  0.0491972  0.4921839  0.0670587    0.00000       Uiso       1.00
      H453          H  0.0575038  0.4564633  0.0689673    0.00000       Uiso       1.00
      H454          H  0.0023532  0.4854216  0.0153628    0.00000       Uiso       1.00
      C472          C  0.1082717  0.4691953  0.0601766    0.00000       Uiso       1.00
      C473          C  0.0850594  0.4570314  0.0618735    0.00000       Uiso       1.00
      C474          C  0.0749415  0.4670264  0.0667437    0.00000       Uiso       1.00
      C475          C  0.1210603  0.4916473  0.0636475    0.00000       Uiso       1.00
      C476          C  0.1109453  0.5016224  0.0685335    0.00000       Uiso       1.00
      C477          C  0.0873069  0.4899646  0.0693657    0.00000       Uiso       1.00
      H455          H  0.0853847  0.5320792  0.0336351    0.00000       Uiso       1.00
      H456          H  0.1390071  0.5015804  0.0626099    0.00000       Uiso       1.00
      C478          C  0.1453488  0.5064968  0.1565156    0.00000       Uiso       1.00
      H457          H  0.1509760  0.5216777  0.1454003    0.00000       Uiso       1.00
      H458          H  0.1560465  0.4979003  0.1635517    0.00000       Uiso       1.00
      H459          H  0.1445607  0.5087761  0.1687223    0.00000       Uiso       1.00
      C479          C  0.0706902  0.4318505  0.0595046    0.00000       Uiso       1.00
      H460          H  0.0555083  0.4262213  0.0610651    0.00000       Uiso       1.00
      H461          H  0.0792850  0.4211501  0.0717592    0.00000       Uiso       1.00
      H462          H  0.0684130  0.4326462  0.0442282    0.00000       Uiso       1.00
      C480          C  0.0948382  0.5793364  0.0090146    0.00000       Uiso       1.00
      H463          H  0.0932771  0.5682208  0.0033880    0.00000       Uiso       1.00
      H464          H  0.1101114  0.5915446  0.0098008    0.00000       Uiso       1.00
      H465          H  0.0825778  0.5863698  0.9983179    0.00000       Uiso       1.00
      C481          C  0.9978428  0.4823377  0.0836711    0.00000       Uiso       1.00
      H466          H  0.0089565  0.4838998  0.0988523    0.00000       Uiso       1.00
      H467          H  0.9856377  0.4670623  0.0859496    0.00000       Uiso       1.00
      H468          H  0.9908043  0.4945939  0.0750739    0.00000       Uiso       1.00
      C482          C  0.0515396  0.4507642  0.1045829    0.00000       Uiso       1.00
      H469          H  0.0469033  0.4597526  0.0879467    0.00000       Uiso       1.00
      H470          H  0.0395511  0.4461998  0.1107702    0.00000       Uiso       1.00
      H471          H  0.0533439  0.4367899  0.1067672    0.00000       Uiso       1.00
      C483          C  0.0809739  0.5274014  0.1028191    0.00000       Uiso       1.00
      H472          H  0.0779623  0.5107656  0.1074539    0.00000       Uiso       1.00
      H473          H  0.0673774  0.5295855  0.1010103    0.00000       Uiso       1.00
      H474          H  0.0945822  0.5335868  0.1148108    0.00000       Uiso       1.00
      C484          C  0.1264308  0.5256405  0.0734004    0.00000       Uiso       1.00
      H475          H  0.1174424  0.5302755  0.0764132    0.00000       Uiso       1.00
      H476          H  0.1310008  0.5376333  0.0597933    0.00000       Uiso       1.00
      H477          H  0.1404018  0.5238290  0.0869971    0.00000       Uiso       1.00
      C485          C  0.0497787  0.4962054  0.0279373    0.00000       Uiso       1.00
      H478          H  0.0664153  0.4992181  0.0369243    0.00000       Uiso       1.00
      H479          H  0.0475927  0.5098000  0.0139638    0.00000       Uiso       1.00
      H480          H  0.0435916  0.4825948  0.0233716    0.00000       Uiso       1.00
      C486          C  0.1724558  0.0347197  0.3101939    0.00000       Uiso       1.00
      C487          C  0.1494360  0.0364834  0.2977225    0.00000       Uiso       1.00
      C488          C  0.1388694  0.0402543  0.2728912    0.00000       Uiso       1.00
      C489          C  0.1847682  0.0364837  0.2977228    0.00000       Uiso       1.00
      C490          C  0.1743568  0.0403586  0.2728927    0.00000       Uiso       1.00
      C491          C  0.1512258  0.0423700  0.2600294    0.00000       Uiso       1.00
      H481          H  0.1123943  0.9699341  0.0331741    0.00000       Uiso       1.00
      H482          H  0.2035340  0.0350251  0.3076245    0.00000       Uiso       1.00
      C492          C  0.8441694  0.9819077  0.9819088    0.00000       Uiso       1.00
      C493          C  0.8566415  0.9695961  0.0049282    0.00000       Uiso       1.00
      C494          C  0.8814716  0.9800076  0.0154721    0.00000       Uiso       1.00
      C495          C  0.8566415  0.0049275  0.9695966    0.00000       Uiso       1.00
      C496          C  0.8814726  0.0154945  0.9800906    0.00000       Uiso       1.00
      C497          C  0.8943352  0.0031389  0.0031930    0.00000       Uiso       1.00
      H483          H  0.1211931  0.0419734  0.2636549    0.00000       Uiso       1.00
      H484          H  0.8467397  0.9508303  0.0152509    0.00000       Uiso       1.00
      C498          C  0.1196457  0.9819100  0.9819111    0.00000       Uiso       1.00
      C499          C  0.1178823  0.0049298  0.9695988    0.00000       Uiso       1.00
      C500          C  0.1140066  0.0154731  0.9800099    0.00000       Uiso       1.00
      C501          C  0.1178823  0.9695984  0.0049304    0.00000       Uiso       1.00
      C502          C  0.1141122  0.9800923  0.0154974    0.00000       Uiso       1.00
      C503          C  0.1119966  0.0031947  0.0031406    0.00000       Uiso       1.00
      H485          H  0.1844321  0.2636549  0.0419716    0.00000       Uiso       1.00
      H486          H  0.1193411  0.0152526  0.9508332    0.00000       Uiso       1.00
      C504          C  0.1724558  0.3101937  0.0347199    0.00000       Uiso       1.00
      C505          C  0.1847682  0.2977225  0.0364840    0.00000       Uiso       1.00
      C506          C  0.1742738  0.2728913  0.0402536    0.00000       Uiso       1.00
      C507          C  0.1494360  0.2977222  0.0364837    0.00000       Uiso       1.00
      C508          C  0.1388922  0.2728922  0.0403586    0.00000       Uiso       1.00
      C509          C  0.1511711  0.2600294  0.0423693    0.00000       Uiso       1.00
      H487          H  0.8907090  0.0331708  0.9699318    0.00000       Uiso       1.00
      C510          C  0.0771825  0.0771830  0.0771824    0.00000       Uiso       1.00
      H488          H  0.1391132  0.3076238  0.0350249    0.00000       Uiso       1.00
      C511          C  0.1354911  0.0345127  0.3110983    0.00000       Uiso       1.00
      H489          H  0.1202729  0.0360743  0.3001291    0.00000       Uiso       1.00
      H490          H  0.1443054  0.0469144  0.3179704    0.00000       Uiso       1.00
      H491          H  0.1332926  0.0193339  0.3234466    0.00000       Uiso       1.00
      C512          C  0.2101185  0.3110986  0.0345136    0.00000       Uiso       1.00
      H492          H  0.2159293  0.3001296  0.0360753    0.00000       Uiso       1.00
      H493          H  0.2205780  0.3179707  0.0469153    0.00000       Uiso       1.00
      H494          H  0.2094866  0.3234470  0.0193348    0.00000       Uiso       1.00
      C513          C  0.8432654  0.0188722  0.9442464    0.00000       Uiso       1.00
      H495          H  0.8542346  0.0340904  0.9384357    0.00000       Uiso       1.00
      H496          H  0.8309170  0.0210707  0.9448783    0.00000       Uiso       1.00
      H497          H  0.8363933  0.0100580  0.9337869    0.00000       Uiso       1.00
      C514          C  0.1198529  0.9442482  0.0188752    0.00000       Uiso       1.00
      H498          H  0.1182912  0.9384375  0.0340933    0.00000       Uiso       1.00
      H499          H  0.1350320  0.9448804  0.0210738    0.00000       Uiso       1.00
      H500          H  0.1074514  0.9337887  0.0100610    0.00000       Uiso       1.00
      C515          C  0.1885554  0.0420035  0.2599761    0.00000       Uiso       1.00
      H501          H  0.1793896  0.0446307  0.2434103    0.00000       Uiso       1.00
      H502          H  0.1917410  0.0274335  0.2668480    0.00000       Uiso       1.00
      H503          H  0.2032945  0.0549610  0.2617018    0.00000       Uiso       1.00
      C516          C  0.8943883  0.9658091  0.0409425    0.00000       Uiso       1.00
      H504          H  0.9109542  0.9749750  0.0457154    0.00000       Uiso       1.00
      H505          H  0.8926629  0.9510703  0.0409981    0.00000       Uiso       1.00
      H506          H  0.8875164  0.9626231  0.0518263    0.00000       Uiso       1.00
      C517          C  0.1134219  0.2599749  0.0420040    0.00000       Uiso       1.00
      H507          H  0.1086493  0.2434092  0.0446311    0.00000       Uiso       1.00
      H508          H  0.1025377  0.2668465  0.0274341    0.00000       Uiso       1.00
      H509          H  0.1133663  0.2617004  0.0549616    0.00000       Uiso       1.00
      C518          C  0.1123603  0.0409430  0.9658113    0.00000       Uiso       1.00
      H510          H  0.1097327  0.0457152  0.9749771    0.00000       Uiso       1.00
      H511          H  0.0994025  0.0409981  0.9510725    0.00000       Uiso       1.00
      H512          H  0.1269301  0.0518276  0.9626253    0.00000       Uiso       1.00
      C519          C  0.1401997  0.0468217  0.2334117    0.00000       Uiso       1.00
      C520          C  0.1155765  0.0355141  0.2228451    0.00000       Uiso       1.00
      C521          C  0.1052966  0.0397677  0.1979471    0.00000       Uiso       1.00
      C522          C  0.1542061  0.0625126  0.2182611    0.00000       Uiso       1.00
      C523          C  0.1439312  0.0667859  0.1933685    0.00000       Uiso       1.00
      C524          C  0.1192962  0.0554842  0.1827741    0.00000       Uiso       1.00
      H513          H  0.1239670  0.0197462  0.0679767    0.00000       Uiso       1.00
      H514          H  0.1730954  0.0719087  0.2256102    0.00000       Uiso       1.00
      C525          C  0.9209527  0.0141655  0.0143330    0.00000       Uiso       1.00
      C526          C  0.9361042  0.0001601  0.0277970    0.00000       Uiso       1.00
      C527          C  0.9609969  0.0104350  0.0381407    0.00000       Uiso       1.00
      C528          C  0.9315185  0.0387880  0.0115856    0.00000       Uiso       1.00
      C529          C  0.9564168  0.0490679  0.0219499    0.00000       Uiso       1.00
      C530          C  0.9715903  0.0350695  0.0354033    0.00000       Uiso       1.00
      H515          H  0.0863843  0.0304211  0.1906070    0.00000       Uiso       1.00
      H516          H  0.9287547  0.9812715  0.0299384    0.00000       Uiso       1.00
      C531          C  0.1075451  0.0143346  0.0141665    0.00000       Uiso       1.00
      C532          C  0.0918457  0.0277914  0.0001622    0.00000       Uiso       1.00
      C533          C  0.0875733  0.0381358  0.0104378    0.00000       Uiso       1.00
      C534          C  0.1188623  0.0115957  0.0387871    0.00000       Uiso       1.00
      C535          C  0.1146109  0.0219619  0.0490670    0.00000       Uiso       1.00
      C536          C  0.0988856  0.0354083  0.0350695    0.00000       Uiso       1.00
      H517          H  0.1346228  0.1906125  0.0304010    0.00000       Uiso       1.00
      H518          H  0.0824426  0.0299274  0.9812754    0.00000       Uiso       1.00
      C537          C  0.1400305  0.2334120  0.0468203    0.00000       Uiso       1.00
      C538          C  0.1427712  0.2228469  0.0355052    0.00000       Uiso       1.00
      C539          C  0.1324042  0.1979495  0.0397557    0.00000       Uiso       1.00
      C540          C  0.1265702  0.2182604  0.0625166    0.00000       Uiso       1.00
      C541          C  0.1162246  0.1933680  0.0667879    0.00000       Uiso       1.00
      C542          C  0.1189542  0.1827754  0.0554779    0.00000       Uiso       1.00
      H519          H  0.9637584  0.0679796  0.0197261    0.00000       Uiso       1.00
      H520          H  0.1244314  0.2256085  0.0719173    0.00000       Uiso       1.00
      C543          C  0.0995202  0.0177133  0.2386118    0.00000       Uiso       1.00
      H521          H  0.0835373  0.0117520  0.2287577    0.00000       Uiso       1.00
      H522          H  0.0997229  0.0256770  0.2468667    0.00000       Uiso       1.00
      H523          H  0.1053955  0.0047297  0.2499374    0.00000       Uiso       1.00
      C544          C  0.1567858  0.2386154  0.0176976    0.00000       Uiso       1.00
      H524          H  0.1569484  0.2287624  0.0117316    0.00000       Uiso       1.00
      H525          H  0.1728037  0.2468699  0.0256583    0.00000       Uiso       1.00
      H526          H  0.1492508  0.2499412  0.0047178    0.00000       Uiso       1.00
      C545          C  0.9157501  0.0548426  0.9975651    0.00000       Uiso       1.00
      H527          H  0.9256037  0.0708253  0.9973984    0.00000       Uiso       1.00
      H528          H  0.9044251  0.0489663  0.0050985    0.00000       Uiso       1.00
      H529          H  0.9074954  0.0546408  0.9815488    0.00000       Uiso       1.00
      C546          C  0.1366722  0.9975842  0.0548395    0.00000       Uiso       1.00
      H530          H  0.1426395  0.9974225  0.0708211    0.00000       Uiso       1.00
      H531          H  0.1496516  0.0051209  0.0489567    0.00000       Uiso       1.00
      H532          H  0.1287132  0.9815661  0.0546432    0.00000       Uiso       1.00
      C547          C  0.1600006  0.0847285  0.1776339    0.00000       Uiso       1.00
      H533          H  0.1507397  0.0858167  0.1613324    0.00000       Uiso       1.00
      H534          H  0.1727709  0.0793598  0.1827223    0.00000       Uiso       1.00
      H535          H  0.1664043  0.1000777  0.1791403    0.00000       Uiso       1.00
      C548          C  0.9767315  0.9943669  0.0519957    0.00000       Uiso       1.00
      H536          H  0.9930338  0.0036275  0.0579486    0.00000       Uiso       1.00
      H537          H  0.9752243  0.9879676  0.0415397    0.00000       Uiso       1.00
      H538          H  0.9716441  0.9815936  0.0650456    0.00000       Uiso       1.00
      C549          C  0.1023672  0.1776289  0.0847341    0.00000       Uiso       1.00
      H539          H  0.0964141  0.1613284  0.0858190    0.00000       Uiso       1.00
      H540          H  0.0893171  0.1827160  0.0793705    0.00000       Uiso       1.00
      H541          H  0.1128219  0.1791330  0.1000837    0.00000       Uiso       1.00
      C550          C  0.0696212  0.0519867  0.9943750    0.00000       Uiso       1.00
      H542          H  0.0685368  0.0579401  0.0036372    0.00000       Uiso       1.00
      H543          H  0.0542725  0.0415288  0.9879793    0.00000       Uiso       1.00
      H544          H  0.0749808  0.0650365  0.9815990    0.00000       Uiso       1.00
      C551          C  0.1082694  0.0601821  0.1560877    0.00000       Uiso       1.00
      C552          C  0.0850582  0.0618823  0.1433404    0.00000       Uiso       1.00
      C553          C  0.0749408  0.0667498  0.1183577    0.00000       Uiso       1.00
      C554          C  0.1210554  0.0636451  0.1429557    0.00000       Uiso       1.00
      C555          C  0.1109410  0.0685274  0.1179801    0.00000       Uiso       1.00
      C556          C  0.0873048  0.0693647  0.1051653    0.00000       Uiso       1.00
      H545          H  0.0853956  0.0336383  0.0968606    0.00000       Uiso       1.00
      H546          H  0.1390004  0.0626036  0.1520100    0.00000       Uiso       1.00
      C557          C  0.9982767  0.0460972  0.0463648    0.00000       Uiso       1.00
      C558          C  0.0114081  0.0333109  0.0688194    0.00000       Uiso       1.00
      C559          C  0.0363847  0.0434242  0.0787986    0.00000       Uiso       1.00
      C560          C  0.0110236  0.0693084  0.0342009    0.00000       Uiso       1.00
      C561          C  0.0360069  0.0794244  0.0441992    0.00000       Uiso       1.00
      C562          C  0.0491997  0.0670599  0.0671401    0.00000       Uiso       1.00
      H547          H  0.0575050  0.0689770  0.1092602    0.00000       Uiso       1.00
      H548          H  0.0023507  0.0153654  0.0787481    0.00000       Uiso       1.00
      C563          C  0.0941876  0.0463705  0.0460950    0.00000       Uiso       1.00
      C564          C  0.0907226  0.0688244  0.0333082    0.00000       Uiso       1.00
      C565          C  0.0858384  0.0788018  0.0434222    0.00000       Uiso       1.00
      C566          C  0.0924872  0.0342060  0.0693054    0.00000       Uiso       1.00
      C567          C  0.0876193  0.0442027  0.0794233    0.00000       Uiso       1.00
      C568          C  0.0850026  0.0671431  0.0670590    0.00000       Uiso       1.00
      H549          H  0.1207235  0.1092620  0.0689678    0.00000       Uiso       1.00
      H550          H  0.0917646  0.0787570  0.0153635    0.00000       Uiso       1.00
      C569          C  0.1079919  0.1560889  0.0601767    0.00000       Uiso       1.00
      C570          C  0.1201556  0.1433435  0.0618738    0.00000       Uiso       1.00
      C571          C  0.1101605  0.1183602  0.0667440    0.00000       Uiso       1.00
      C572          C  0.0855398  0.1429545  0.0636472    0.00000       Uiso       1.00
      C573          C  0.0755645  0.1179782  0.0685332    0.00000       Uiso       1.00
      C574          C  0.0872222  0.1051654  0.0693657    0.00000       Uiso       1.00
      H551          H  0.0451073  0.0968589  0.0336348    0.00000       Uiso       1.00
      H552          H  0.0756067  0.1520059  0.0626094    0.00000       Uiso       1.00
      C575          C  0.0706902  0.0595254  0.1565150    0.00000       Uiso       1.00
      H553          H  0.0555093  0.0610870  0.1453995    0.00000       Uiso       1.00
      H554          H  0.0792870  0.0717838  0.1635511    0.00000       Uiso       1.00
      H555          H  0.0684110  0.0442514  0.1687217    0.00000       Uiso       1.00
      C576          C  0.1453367  0.1565243  0.0595052    0.00000       Uiso       1.00
      H556          H  0.1509658  0.1454110  0.0610659    0.00000       Uiso       1.00
      H557          H  0.1560372  0.1635650  0.0717598    0.00000       Uiso       1.00
      H558          H  0.1445409  0.1687277  0.0442288    0.00000       Uiso       1.00
      C577          C  0.9978500  0.0836754  0.0090138    0.00000       Uiso       1.00
      H559          H  0.0089655  0.0988565  0.0033873    0.00000       Uiso       1.00
      H560          H  0.9856418  0.0859542  0.0097998    0.00000       Uiso       1.00
      H561          H  0.9908153  0.0750779  0.9983172    0.00000       Uiso       1.00
      C578          C  0.0948486  0.0090221  0.0836719    0.00000       Uiso       1.00
      H562          H  0.0932865  0.0033926  0.0988530    0.00000       Uiso       1.00
      H563          H  0.1101239  0.0098138  0.0859506    0.00000       Uiso       1.00
      H564          H  0.0825915  0.9983242  0.0750746    0.00000       Uiso       1.00
      C579          C  0.1264226  0.0733813  0.1045835    0.00000       Uiso       1.00
      H565          H  0.1174342  0.0763927  0.0879473    0.00000       Uiso       1.00
      H566          H  0.1309870  0.0597698  0.1107710    0.00000       Uiso       1.00
      H567          H  0.1403970  0.0869757  0.1067679    0.00000       Uiso       1.00
      C580          C  0.0497850  0.0279418  0.1028189    0.00000       Uiso       1.00
      H568          H  0.0664210  0.0369314  0.1074538    0.00000       Uiso       1.00
      H569          H  0.0476009  0.0139700  0.1010101    0.00000       Uiso       1.00
      H570          H  0.0435997  0.0233731  0.1148104    0.00000       Uiso       1.00
      C581          C  0.0515464  0.1045787  0.0733998    0.00000       Uiso       1.00
      H571          H  0.0469112  0.0879425  0.0764126    0.00000       Uiso       1.00
      H572          H  0.0395535  0.1107631  0.0597925    0.00000       Uiso       1.00
      H573          H  0.0533579  0.1067645  0.0869964    0.00000       Uiso       1.00
      C582          C  0.0809811  0.1028244  0.0279376    0.00000       Uiso       1.00
      H574          H  0.0779685  0.1074614  0.0369245    0.00000       Uiso       1.00
      H575          H  0.0673865  0.1010173  0.0139640    0.00000       Uiso       1.00
      H576          H  0.0945918  0.1148136  0.0233721    0.00000       Uiso       1.00
      C583          C  0.6146848  0.7960401  0.4531433    0.00000       Uiso       1.00
      C584          C  0.6136030  0.8166324  0.4519114    0.00000       Uiso       1.00
      C585          C  0.5922430  0.8172869  0.4495170    0.00000       Uiso       1.00
      C586          C  0.5918157  0.8376391  0.4495277    0.00000       Uiso       1.00
      C587          C  0.6130904  0.8573247  0.4532977    0.00000       Uiso       1.00
      C588          C  0.6344976  0.8561274  0.4560382    0.00000       Uiso       1.00
      C589          C  0.6348252  0.8368862  0.4536815    0.00000       Uiso       1.00
        O1          O  0.5958555  0.7744469  0.4526268    0.00000       Uiso       1.00
      H577          H  0.5758435  0.8019162  0.4476138    0.00000       Uiso       1.00
      H578          H  0.5747114  0.8375511  0.4468201    0.00000       Uiso       1.00
      H579          H  0.6513370  0.8695065  0.4615600    0.00000       Uiso       1.00
      C590          C  0.7811076  0.9427115  0.4530813    0.00000       Uiso       1.00
      C591          C  0.7605087  0.9222744  0.4518349    0.00000       Uiso       1.00
      C592          C  0.7598535  0.9026465  0.4494526    0.00000       Uiso       1.00
      C593          C  0.7395012  0.8818554  0.4494702    0.00000       Uiso       1.00
      C594          C  0.7198182  0.8796778  0.4532413    0.00000       Uiso       1.00
      C595          C  0.7210141  0.8995562  0.4559579    0.00000       Uiso       1.00
      C596          C  0.7402539  0.9214823  0.4535913    0.00000       Uiso       1.00
        O2          O  0.8027101  0.9459748  0.4525976    0.00000       Uiso       1.00
      H580          H  0.7752259  0.9035079  0.4475655    0.00000       Uiso       1.00
      H581          H  0.7395930  0.8675414  0.4467747    0.00000       Uiso       1.00
      H582          H  0.7076426  0.8975085  0.4614778    0.00000       Uiso       1.00
      C597          C  0.6344666  0.9624866  0.4531019    0.00000       Uiso       1.00
      C598          C  0.6548937  0.9635761  0.4518374    0.00000       Uiso       1.00
      C599          C  0.6745030  0.9849426  0.4494217    0.00000       Uiso       1.00
      C600          C  0.6952877  0.9853792  0.4494097    0.00000       Uiso       1.00
      C601          C  0.6974713  0.9641064  0.4531776    0.00000       Uiso       1.00
      C602          C  0.6776096  0.9426938  0.4559264    0.00000       Uiso       1.00
      C603          C  0.6556919  0.9423568  0.4536002    0.00000       Uiso       1.00
        O3          O  0.6311933  0.9813170  0.4525898    0.00000       Uiso       1.00
      H583          H  0.6736252  0.0013354  0.4475317    0.00000       Uiso       1.00
      H584          H  0.7095938  0.0024865  0.4466967    0.00000       Uiso       1.00
      H585          H  0.6796691  0.9258558  0.4614396    0.00000       Uiso       1.00
      C604          C  0.6155685  0.9414520  0.4562168    0.00000       Uiso       1.00
      C605          C  0.6151168  0.9204032  0.4567876    0.00000       Uiso       1.00
      C606          C  0.5954919  0.8990797  0.4593955    0.00000       Uiso       1.00
      C607          C  0.5949805  0.8784462  0.4590108    0.00000       Uiso       1.00
      C608          C  0.6134840  0.8790497  0.4546195    0.00000       Uiso       1.00
      C609          C  0.6328275  0.9008957  0.4514944    0.00000       Uiso       1.00
      C610          C  0.6348879  0.9210732  0.4542900    0.00000       Uiso       1.00
        O4          O  0.5975580  0.9439723  0.4579925    0.00000       Uiso       1.00
      H586          H  0.5805637  0.8984581  0.4618277    0.00000       Uiso       1.00
      H587          H  0.5798541  0.8622187  0.4619882    0.00000       Uiso       1.00
      H588          H  0.6457028  0.9027290  0.4454611    0.00000       Uiso       1.00
      C611          C  0.7820718  0.9616281  0.4561552    0.00000       Uiso       1.00
      C612          C  0.7620368  0.9620864  0.4567035    0.00000       Uiso       1.00
      C613          C  0.7629260  0.9817320  0.4592599    0.00000       Uiso       1.00
      C614          C  0.7424123  0.9822438  0.4588590    0.00000       Uiso       1.00
      C615          C  0.7201311  0.9637163  0.4545077    0.00000       Uiso       1.00
      C616          C  0.7195292  0.9443543  0.4514307    0.00000       Uiso       1.00
      C617          C  0.7404494  0.9422998  0.4542384    0.00000       Uiso       1.00
        O5          O  0.8043752  0.9796421  0.4579239    0.00000       Uiso       1.00
      H589          H  0.7796587  0.9966725  0.4616753    0.00000       Uiso       1.00
      H590          H  0.7442808  0.9973890  0.4618005    0.00000       Uiso       1.00
      H591          H  0.7024636  0.9314597  0.4454147    0.00000       Uiso       1.00
      C618          C  0.6357146  0.7950789  0.4562197    0.00000       Uiso       1.00
      C619          C  0.6567577  0.8151096  0.4567842    0.00000       Uiso       1.00
      C620          C  0.6780658  0.8142197  0.4593338    0.00000       Uiso       1.00
      C621          C  0.6986914  0.8347322  0.4589298    0.00000       Uiso       1.00
      C622          C  0.6981003  0.8570138  0.4545912    0.00000       Uiso       1.00
      C623          C  0.6762673  0.8576139  0.4515311    0.00000       Uiso       1.00
      C624          C  0.6560972  0.8366931  0.4543328    0.00000       Uiso       1.00
        O6          O  0.6331921  0.7727856  0.4579619    0.00000       Uiso       1.00
      H592          H  0.6786797  0.7974858  0.4617396    0.00000       Uiso       1.00
      H593          H  0.7149026  0.8328621  0.4618560    0.00000       Uiso       1.00
      H594          H  0.6744266  0.8746805  0.4455273    0.00000       Uiso       1.00
        B1          B  0.6078198  0.7598191  0.4556926    0.00000       Uiso       1.00
        B2          B  0.8173468  0.9694949  0.4556761    0.00000       Uiso       1.00
        B3          B  0.6076869  0.9693506  0.4556969    0.00000       Uiso       1.00
      C625          C  0.6344962  0.4531429  0.7960408    0.00000       Uiso       1.00
      C626          C  0.6549386  0.4519112  0.8166335    0.00000       Uiso       1.00
      C627          C  0.6745590  0.4495171  0.8172882    0.00000       Uiso       1.00
      C628          C  0.6953493  0.4495280  0.8376406    0.00000       Uiso       1.00
      C629          C  0.6975302  0.4532979  0.8573261    0.00000       Uiso       1.00
      C630          C  0.6776658  0.4560381  0.8561284    0.00000       Uiso       1.00
      C631          C  0.6557400  0.4536811  0.8368870    0.00000       Uiso       1.00
        O7          O  0.6312160  0.4526266  0.7744479    0.00000       Uiso       1.00
      H595          H  0.6736848  0.4476141  0.8019176    0.00000       Uiso       1.00
      H596          H  0.7096583  0.4468206  0.8375529    0.00000       Uiso       1.00
      H597          H  0.6797273  0.4615598  0.8695074    0.00000       Uiso       1.00
      C632          C  0.6146812  0.4530794  0.9427108    0.00000       Uiso       1.00
      C633          C  0.6135968  0.4518332  0.9222739    0.00000       Uiso       1.00
      C634          C  0.5922416  0.4494507  0.9026458    0.00000       Uiso       1.00
      C635          C  0.5918206  0.4494685  0.8818548    0.00000       Uiso       1.00
      C636          C  0.6130974  0.4532399  0.8796777    0.00000       Uiso       1.00
      C637          C  0.6344967  0.4559567  0.8995562    0.00000       Uiso       1.00
      C638          C  0.6348163  0.4535900  0.9214821    0.00000       Uiso       1.00
        O8          O  0.5958580  0.4525954  0.9459737    0.00000       Uiso       1.00
      H598          H  0.5758433  0.4475634  0.9035070    0.00000       Uiso       1.00
      H599          H  0.5747192  0.4467728  0.8675408    0.00000       Uiso       1.00
      H600          H  0.6513406  0.4614767  0.8975087    0.00000       Uiso       1.00
      C639          C  0.7811204  0.4531026  0.9624885    0.00000       Uiso       1.00
      C640          C  0.7605180  0.4518376  0.9635777    0.00000       Uiso       1.00
      C641          C  0.7598593  0.4494218  0.9849439    0.00000       Uiso       1.00
      C642          C  0.7394989  0.4494095  0.9853803    0.00000       Uiso       1.00
      C643          C  0.7198103  0.4531772  0.9641073    0.00000       Uiso       1.00
      C644          C  0.7210083  0.4559262  0.9426948    0.00000       Uiso       1.00
      C645          C  0.7402630  0.4536003  0.9423581    0.00000       Uiso       1.00
        O9          O  0.8027121  0.4525906  0.9813191    0.00000       Uiso       1.00
      H601          H  0.7752411  0.4475325  0.0013364    0.00000       Uiso       1.00
      H602          H  0.7395878  0.4466969  0.0024870    0.00000       Uiso       1.00
      H603          H  0.7076238  0.4614392  0.9258568    0.00000       Uiso       1.00
      C646          C  0.7820990  0.4562176  0.9414541    0.00000       Uiso       1.00
      C647          C  0.7620724  0.4567882  0.9204051    0.00000       Uiso       1.00
      C648          C  0.7629820  0.4593963  0.8990817    0.00000       Uiso       1.00
      C649          C  0.7424750  0.4590114  0.8784481    0.00000       Uiso       1.00
      C650          C  0.7201834  0.4546199  0.8790512    0.00000       Uiso       1.00
      C651          C  0.7195607  0.4514946  0.9008971    0.00000       Uiso       1.00
      C652          C  0.7404734  0.4542902  0.9210747    0.00000       Uiso       1.00
       O10          O  0.8044058  0.4579936  0.9439747    0.00000       Uiso       1.00
      H604          H  0.7797211  0.4618288  0.8984604    0.00000       Uiso       1.00
      H605          H  0.7443515  0.4619890  0.8622208    0.00000       Uiso       1.00
      H606          H  0.7024851  0.4454610  0.9027301    0.00000       Uiso       1.00
      C653          C  0.6357078  0.4561535  0.9616277    0.00000       Uiso       1.00
      C654          C  0.6567495  0.4567021  0.9620862    0.00000       Uiso       1.00
      C655          C  0.6780624  0.4592586  0.9817320    0.00000       Uiso       1.00
      C656          C  0.6986874  0.4588580  0.9822442    0.00000       Uiso       1.00
      C657          C  0.6980900  0.4545070  0.9637167    0.00000       Uiso       1.00
      C658          C  0.6762528  0.4514298  0.9443547    0.00000       Uiso       1.00
      C659          C  0.6560854  0.4542372  0.9422998    0.00000       Uiso       1.00
       O11          O  0.6331868  0.4579220  0.9796414    0.00000       Uiso       1.00
      H607          H  0.6786855  0.4616739  0.9966723    0.00000       Uiso       1.00
      H608          H  0.7149058  0.4617997  0.9973894    0.00000       Uiso       1.00
      H609          H  0.6744080  0.4454139  0.9314602    0.00000       Uiso       1.00
      C660          C  0.6155813  0.4562190  0.7950794    0.00000       Uiso       1.00
      C661          C  0.6151332  0.4567833  0.8151099    0.00000       Uiso       1.00
      C662          C  0.5954844  0.4593326  0.8142197    0.00000       Uiso       1.00
      C663          C  0.5949672  0.4589284  0.8347321    0.00000       Uiso       1.00
      C664          C  0.6135014  0.4545900  0.8570138    0.00000       Uiso       1.00
      C665          C  0.6328748  0.4515302  0.8576142    0.00000       Uiso       1.00
      C666          C  0.6349260  0.4543321  0.8366936    0.00000       Uiso       1.00
       O12          O  0.5975527  0.4579611  0.7727860    0.00000       Uiso       1.00
      H610          H  0.5805424  0.4617383  0.7974856    0.00000       Uiso       1.00
      H611          H  0.5798118  0.4618544  0.8328617    0.00000       Uiso       1.00
      H612          H  0.6457784  0.4455265  0.8746809    0.00000       Uiso       1.00
        B4          B  0.6076894  0.4556921  0.7598197    0.00000       Uiso       1.00
        B5          B  0.6078197  0.4556738  0.9694939    0.00000       Uiso       1.00
        B6          B  0.8173596  0.4556980  0.9693530    0.00000       Uiso       1.00
       Si1         Si  0.5716855  0.3829552  0.3829556    0.00000       Uiso       1.00
        B7          B  0.5426735  0.3914892  0.3369316    0.00000       Uiso       1.00
       O13          O  0.5614707  0.3809381  0.3549252    0.00000       Uiso       1.00
       O14          O  0.5614710  0.4027881  0.3809383    0.00000       Uiso       1.00
        B8          B  0.5426728  0.3914335  0.3914881    0.00000       Uiso       1.00
        B9          B  0.5426728  0.3369312  0.3914336    0.00000       Uiso       1.00
       O15          O  0.5614707  0.3549248  0.4027884    0.00000       Uiso       1.00
       O16          O  0.5241054  0.3904208  0.3426326    0.00000       Uiso       1.00
       O17          O  0.5241054  0.3682320  0.3904204    0.00000       Uiso       1.00
       O18          O  0.5241056  0.3426328  0.3682320    0.00000       Uiso       1.00
       Si2         Si  0.5137949  0.3636582  0.3636580    0.00000       Uiso       1.00
      H613          H  0.5980785  0.3917530  0.3917534    0.00000       Uiso       1.00
      H614          H  0.4874020  0.3548603  0.3548603    0.00000       Uiso       1.00
       Si3         Si  0.1942200  0.3829523  0.3829524    0.00000       Uiso       1.00
       B10          B  0.1857422  0.3369284  0.3914865    0.00000       Uiso       1.00
       O19          O  0.1743872  0.3549218  0.3809352    0.00000       Uiso       1.00
       O20          O  0.2222505  0.3809353  0.4027856    0.00000       Uiso       1.00
       B11          B  0.2402441  0.3914854  0.3914312    0.00000       Uiso       1.00
       B12          B  0.1856869  0.3914305  0.3369285    0.00000       Uiso       1.00
       O21          O  0.1962373  0.4027852  0.3549221    0.00000       Uiso       1.00
       O22          O  0.2089432  0.3426297  0.3904184    0.00000       Uiso       1.00
       O23          O  0.2345425  0.3904178  0.3682299    0.00000       Uiso       1.00
       O24          O  0.1867542  0.3682290  0.3426302    0.00000       Uiso       1.00
       Si4         Si  0.2135167  0.3636554  0.3636560    0.00000       Uiso       1.00
      H615          H  0.1854222  0.3917498  0.3917499    0.00000       Uiso       1.00
      H616          H  0.2223143  0.3548579  0.3548583    0.00000       Uiso       1.00
      C667          C  0.1240392  0.9624975  0.7960448    0.00000       Uiso       1.00
      C668          C  0.1252711  0.9635792  0.8166372    0.00000       Uiso       1.00
      C669          C  0.1276654  0.9849392  0.8172918    0.00000       Uiso       1.00
      C670          C  0.1276546  0.9853664  0.8376441    0.00000       Uiso       1.00
      C671          C  0.1238847  0.9640918  0.8573295    0.00000       Uiso       1.00
      C672          C  0.1211444  0.9426848  0.8561320    0.00000       Uiso       1.00
      C673          C  0.1235012  0.9423572  0.8368908    0.00000       Uiso       1.00
       O25          O  0.1245556  0.9813267  0.7744518    0.00000       Uiso       1.00
      H617          H  0.1295690  0.0013386  0.8019213    0.00000       Uiso       1.00
      H618          H  0.1303627  0.0024706  0.8375562    0.00000       Uiso       1.00
      H619          H  0.1156226  0.9258455  0.8695109    0.00000       Uiso       1.00
      C674          C  0.1241025  0.7960760  0.9427149    0.00000       Uiso       1.00
      C675          C  0.1253488  0.8166746  0.9222780    0.00000       Uiso       1.00
      C676          C  0.1277311  0.8173299  0.9026501    0.00000       Uiso       1.00
      C677          C  0.1277134  0.8376821  0.8818591    0.00000       Uiso       1.00
      C678          C  0.1239420  0.8573649  0.8796816    0.00000       Uiso       1.00
      C679          C  0.1212254  0.8561689  0.8995600    0.00000       Uiso       1.00
      C680          C  0.1235922  0.8369294  0.9214861    0.00000       Uiso       1.00
       O26          O  0.1245864  0.7744737  0.9459779    0.00000       Uiso       1.00
      H620          H  0.1296184  0.8019577  0.9035113    0.00000       Uiso       1.00
      H621          H  0.1304090  0.8375903  0.8675452    0.00000       Uiso       1.00
      H622          H  0.1157054  0.8695403  0.8975124    0.00000       Uiso       1.00
      C681          C  0.1240806  0.9427156  0.9624912    0.00000       Uiso       1.00
      C682          C  0.1253454  0.9222888  0.9635806    0.00000       Uiso       1.00
      C683          C  0.1277612  0.9026796  0.9849469    0.00000       Uiso       1.00
      C684          C  0.1277734  0.8818951  0.9853834    0.00000       Uiso       1.00
      C685          C  0.1240055  0.8797115  0.9641106    0.00000       Uiso       1.00
      C686          C  0.1212565  0.8995730  0.9426980    0.00000       Uiso       1.00
      C687          C  0.1235826  0.9214906  0.9423612    0.00000       Uiso       1.00
       O27          O  0.1245928  0.9459888  0.9813217    0.00000       Uiso       1.00
      H623          H  0.1296517  0.9035585  0.0013393    0.00000       Uiso       1.00
      H624          H  0.1304871  0.8675902  0.0024901    0.00000       Uiso       1.00
      H625          H  0.1157433  0.8975134  0.9258600    0.00000       Uiso       1.00
      C688          C  0.1209655  0.9616135  0.9414569    0.00000       Uiso       1.00
      C689          C  0.1203949  0.9620652  0.9204080    0.00000       Uiso       1.00
      C690          C  0.1177867  0.9816901  0.8990845    0.00000       Uiso       1.00
      C691          C  0.1181715  0.9822015  0.8784511    0.00000       Uiso       1.00
      C692          C  0.1225629  0.9636981  0.8790544    0.00000       Uiso       1.00
      C693          C  0.1256882  0.9443547  0.9009004    0.00000       Uiso       1.00
      C694          C  0.1228926  0.9422943  0.9210778    0.00000       Uiso       1.00
       O28          O  0.1191897  0.9796239  0.9439772    0.00000       Uiso       1.00
      H626          H  0.1153543  0.9966180  0.8984631    0.00000       Uiso       1.00
      H627          H  0.1151940  0.9973278  0.8622237    0.00000       Uiso       1.00
      H628          H  0.1317217  0.9314798  0.9027336    0.00000       Uiso       1.00
      C695          C  0.1210285  0.7951117  0.9616315    0.00000       Uiso       1.00
      C696          C  0.1204802  0.8151466  0.9620900    0.00000       Uiso       1.00
      C697          C  0.1179237  0.8142573  0.9817355    0.00000       Uiso       1.00
      C698          C  0.1183245  0.8347707  0.9822475    0.00000       Uiso       1.00
      C699          C  0.1226756  0.8570519  0.9637201    0.00000       Uiso       1.00
      C700          C  0.1257526  0.8576538  0.9443583    0.00000       Uiso       1.00
      C701          C  0.1229450  0.8367337  0.9423035    0.00000       Uiso       1.00
       O29          O  0.1192601  0.7728085  0.9796453    0.00000       Uiso       1.00
      H629          H  0.1155085  0.7975248  0.9966758    0.00000       Uiso       1.00
      H630          H  0.1153829  0.8329023  0.9973927    0.00000       Uiso       1.00
      H631          H  0.1317685  0.8747193  0.9314638    0.00000       Uiso       1.00
      C702          C  0.1209629  0.9414678  0.7950835    0.00000       Uiso       1.00
      C703          C  0.1203986  0.9204249  0.8151139    0.00000       Uiso       1.00
      C704          C  0.1178492  0.8991170  0.8142239    0.00000       Uiso       1.00
      C705          C  0.1182534  0.8784916  0.8347362    0.00000       Uiso       1.00
      C706          C  0.1225920  0.8790826  0.8570178    0.00000       Uiso       1.00
      C707          C  0.1256519  0.9009154  0.8576182    0.00000       Uiso       1.00
      C708          C  0.1228500  0.9210853  0.8366975    0.00000       Uiso       1.00
       O30          O  0.1192207  0.9439903  0.7727901    0.00000       Uiso       1.00
      H632          H  0.1154434  0.8985030  0.7974899    0.00000       Uiso       1.00
      H633          H  0.1153273  0.8622804  0.8328660    0.00000       Uiso       1.00
      H634          H  0.1316558  0.9027562  0.8746848    0.00000       Uiso       1.00
       B13          B  0.1214899  0.9693624  0.7598239    0.00000       Uiso       1.00
       B14          B  0.1215080  0.7598370  0.9694980    0.00000       Uiso       1.00
       B15          B  0.1214854  0.9694951  0.9693555    0.00000       Uiso       1.00
       Si5         Si  0.1942279  0.0054977  0.3829604    0.00000       Uiso       1.00
       B16          B  0.2402521  0.0345099  0.3914950    0.00000       Uiso       1.00
       O31          O  0.2222586  0.0157126  0.3809436    0.00000       Uiso       1.00
       O32          O  0.1962451  0.0157121  0.4027934    0.00000       Uiso       1.00
       B17          B  0.1856951  0.0345101  0.3914388    0.00000       Uiso       1.00
       B18          B  0.1857497  0.0345101  0.3369365    0.00000       Uiso       1.00
       O33          O  0.1743949  0.0157122  0.3549299    0.00000       Uiso       1.00
       O34          O  0.2345509  0.0530778  0.3904267    0.00000       Uiso       1.00
       O35          O  0.1867627  0.0530774  0.3682375    0.00000       Uiso       1.00
       O36          O  0.2089513  0.0530774  0.3426384    0.00000       Uiso       1.00
       Si6         Si  0.2135252  0.0633880  0.3636640    0.00000       Uiso       1.00
      H635          H  0.1854297  0.9791046  0.3917579    0.00000       Uiso       1.00
      H636          H  0.2223228  0.0897808  0.3548664    0.00000       Uiso       1.00
      C709          C  0.6146845  0.9426822  0.7960407    0.00000       Uiso       1.00
      C710          C  0.6136028  0.9222400  0.8166331    0.00000       Uiso       1.00
      C711          C  0.5922428  0.9026196  0.8172876    0.00000       Uiso       1.00
      C712          C  0.5918156  0.8818293  0.8376399    0.00000       Uiso       1.00
      C713          C  0.6130902  0.8796487  0.8573254    0.00000       Uiso       1.00
      C714          C  0.6344974  0.8995131  0.8561280    0.00000       Uiso       1.00
      C715          C  0.6348250  0.9214387  0.8368869    0.00000       Uiso       1.00
       O37          O  0.5958552  0.9459623  0.7744476    0.00000       Uiso       1.00
      H637          H  0.5758433  0.9034936  0.8019168    0.00000       Uiso       1.00
      H638          H  0.5747113  0.8675204  0.8375518    0.00000       Uiso       1.00
      H639          H  0.6513368  0.8974517  0.8695072    0.00000       Uiso       1.00
      C716          C  0.7811073  0.9624982  0.9427121    0.00000       Uiso       1.00
      C717          C  0.7605084  0.9635824  0.9222751    0.00000       Uiso       1.00
      C718          C  0.7598532  0.9849374  0.9026472    0.00000       Uiso       1.00
      C719          C  0.7395009  0.9853583  0.8818561    0.00000       Uiso       1.00
      C720          C  0.7198181  0.9640816  0.8796784    0.00000       Uiso       1.00
      C721          C  0.7210138  0.9426824  0.8995568    0.00000       Uiso       1.00
      C722          C  0.7402536  0.9423630  0.9214830    0.00000       Uiso       1.00
       O38          O  0.8027098  0.9813215  0.9459754    0.00000       Uiso       1.00
      H640          H  0.7752262  0.0013360  0.9035085    0.00000       Uiso       1.00
      H641          H  0.7395933  0.0024598  0.8675421    0.00000       Uiso       1.00
      H642          H  0.7076424  0.9258386  0.8975092    0.00000       Uiso       1.00
      C723          C  0.6344665  0.7960593  0.9624873    0.00000       Uiso       1.00
      C724          C  0.6548936  0.8166617  0.9635769    0.00000       Uiso       1.00
      C725          C  0.6745028  0.8173205  0.9849433    0.00000       Uiso       1.00
      C726          C  0.6952876  0.8376809  0.9853799    0.00000       Uiso       1.00
      C727          C  0.6974711  0.8573694  0.9641072    0.00000       Uiso       1.00
      C728          C  0.6776094  0.8561712  0.9426945    0.00000       Uiso       1.00
      C729          C  0.6556918  0.8369164  0.9423575    0.00000       Uiso       1.00
       O39          O  0.6311932  0.7744676  0.9813177    0.00000       Uiso       1.00
      H643          H  0.6736251  0.8019398  0.0013356    0.00000       Uiso       1.00
      H644          H  0.7095937  0.8375931  0.0024867    0.00000       Uiso       1.00
      H645          H  0.6796690  0.8695555  0.9258565    0.00000       Uiso       1.00
      C730          C  0.6155685  0.7950804  0.9414528    0.00000       Uiso       1.00
      C731          C  0.6151167  0.8151069  0.9204040    0.00000       Uiso       1.00
      C732          C  0.5954917  0.8141972  0.8990803    0.00000       Uiso       1.00
      C733          C  0.5949804  0.8347040  0.8784469    0.00000       Uiso       1.00
      C734          C  0.6134838  0.8569955  0.8790504    0.00000       Uiso       1.00
      C735          C  0.6328273  0.8576185  0.9008964    0.00000       Uiso       1.00
      C736          C  0.6348878  0.8367059  0.9210739    0.00000       Uiso       1.00
       O40          O  0.5975579  0.7727737  0.9439731    0.00000       Uiso       1.00
      H646          H  0.5805637  0.7974581  0.8984588    0.00000       Uiso       1.00
      H647          H  0.5798540  0.8328275  0.8622195    0.00000       Uiso       1.00
      H648          H  0.6457026  0.8746939  0.9027297    0.00000       Uiso       1.00
      C737          C  0.7820715  0.9414718  0.9616289    0.00000       Uiso       1.00
      C738          C  0.7620366  0.9204301  0.9620871    0.00000       Uiso       1.00
      C739          C  0.7629259  0.8991174  0.9817327    0.00000       Uiso       1.00
      C740          C  0.7424121  0.8784923  0.9822446    0.00000       Uiso       1.00
      C741          C  0.7201309  0.8790896  0.9637169    0.00000       Uiso       1.00
      C742          C  0.7195290  0.9009266  0.9443551    0.00000       Uiso       1.00
      C743          C  0.7404492  0.9210939  0.9423004    0.00000       Uiso       1.00
       O41          O  0.8043750  0.9439930  0.9796428    0.00000       Uiso       1.00
      H649          H  0.7796584  0.8984943  0.9966731    0.00000       Uiso       1.00
      H650          H  0.7442806  0.8622741  0.9973897    0.00000       Uiso       1.00
      H651          H  0.7024634  0.9027714  0.9314604    0.00000       Uiso       1.00
      C744          C  0.6357144  0.9615970  0.7950796    0.00000       Uiso       1.00
      C745          C  0.6567574  0.9620453  0.8151102    0.00000       Uiso       1.00
      C746          C  0.6780656  0.9816942  0.8142204    0.00000       Uiso       1.00
      C747          C  0.6986911  0.9822115  0.8347329    0.00000       Uiso       1.00
      C748          C  0.6981001  0.9636775  0.8570145    0.00000       Uiso       1.00
      C749          C  0.6762670  0.9443039  0.8576146    0.00000       Uiso       1.00
      C750          C  0.6560970  0.9422528  0.8366938    0.00000       Uiso       1.00
       O42          O  0.6331918  0.9796255  0.7727863    0.00000       Uiso       1.00
      H652          H  0.6786795  0.9966362  0.7974865    0.00000       Uiso       1.00
      H653          H  0.7149024  0.9973669  0.8328628    0.00000       Uiso       1.00
      H654          H  0.6744264  0.9314005  0.8746812    0.00000       Uiso       1.00
       B19          B  0.6078196  0.9694888  0.7598197    0.00000       Uiso       1.00
       B20          B  0.8173466  0.9693599  0.9694956    0.00000       Uiso       1.00
       B21          B  0.6076869  0.7598200  0.9693514    0.00000       Uiso       1.00
       Si7         Si  0.1942203  0.3829523  0.0054899    0.00000       Uiso       1.00
       B22          B  0.1857424  0.3914864  0.0345016    0.00000       Uiso       1.00
       O43          O  0.1743874  0.3809351  0.0157044    0.00000       Uiso       1.00
       O44          O  0.2222507  0.4027855  0.0157045    0.00000       Uiso       1.00
       B23          B  0.2402443  0.3914312  0.0345027    0.00000       Uiso       1.00
       B24          B  0.1856872  0.3369284  0.0345023    0.00000       Uiso       1.00
       O45          O  0.1962376  0.3549220  0.0157046    0.00000       Uiso       1.00
       O46          O  0.2089434  0.3904183  0.0530698    0.00000       Uiso       1.00
       O47          O  0.2345428  0.3682298  0.0530700    0.00000       Uiso       1.00
       O48          O  0.1867544  0.3426301  0.0530693    0.00000       Uiso       1.00
       Si8         Si  0.2135169  0.3636559  0.0633802    0.00000       Uiso       1.00
      H655          H  0.1854219  0.3917492  0.9790973    0.00000       Uiso       1.00
      H656          H  0.2223145  0.3548582  0.0897730    0.00000       Uiso       1.00
