data_64
_audit_creation_date              0000-00-00
_audit_creation_method            'LanYouShi'
_symmetry_space_group_name_H-M    'P1'
_cell_length_a                    68.1961975
_cell_length_b                    68.1961975
_cell_length_c                    68.1971970
_cell_angle_alpha                 120.0005035
_cell_angle_beta                  59.9995003
_cell_angle_gamma                 120.0009995
loop_
_atom_site_label
_atom_site_type_symbol
_atom_site_fract_x
_atom_site_fract_y
_atom_site_fract_z
_atom_site_U_iso_or_equiv
_atom_site_adp_type
_atom_site_occupancy
        C1          C  0.2669865  0.4047252  0.5424638    0.00000       Uiso       1.00
        C2          C  0.2794576  0.3924127  0.5406997    0.00000       Uiso       1.00
        C3          C  0.3042890  0.4029065  0.5369289    0.00000       Uiso       1.00
        C4          C  0.2794581  0.4277452  0.5407002    0.00000       Uiso       1.00
        C5          C  0.3042883  0.4382890  0.5368254    0.00000       Uiso       1.00
        C6          C  0.3171513  0.4260096  0.5348137    0.00000       Uiso       1.00
        H1          H  0.5438017  0.4643290  0.6071543    0.00000       Uiso       1.00
        H2          H  0.5440092  0.6864723  0.6072521    0.00000       Uiso       1.00
        H3          H  0.2695566  0.4380681  0.5421591    0.00000       Uiso       1.00
        C7          C  0.5952694  0.4575339  0.5952726    0.00000       Uiso       1.00
        C8          C  0.5722496  0.4592977  0.6075847    0.00000       Uiso       1.00
        C9          C  0.5617061  0.4631727  0.5971735    0.00000       Uiso       1.00
       C10          C  0.6075820  0.4592982  0.5722533    0.00000       Uiso       1.00
       C11          C  0.5970885  0.4630689  0.5616868    0.00000       Uiso       1.00
       C12          C  0.5739856  0.4651842  0.5740429    0.00000       Uiso       1.00
        H4          H  0.3135251  0.3927473  0.5352096    0.00000       Uiso       1.00
        H5          H  0.5356680  0.3928465  0.3133742    0.00000       Uiso       1.00
        H6          H  0.5619265  0.4578387  0.6263501    0.00000       Uiso       1.00
       C13          C  0.5952734  0.7330120  0.5952765    0.00000       Uiso       1.00
       C14          C  0.6075858  0.7205408  0.5722570    0.00000       Uiso       1.00
       C15          C  0.5971746  0.6957105  0.5617134    0.00000       Uiso       1.00
       C16          C  0.5722534  0.7205403  0.6075884    0.00000       Uiso       1.00
       C17          C  0.5616862  0.6957090  0.5970942    0.00000       Uiso       1.00
       C18          C  0.5740431  0.6828474  0.5739920    0.00000       Uiso       1.00
        H7          H  0.5352131  0.4559928  0.3135327    0.00000       Uiso       1.00
        H8          H  0.3133684  0.4561937  0.5356695    0.00000       Uiso       1.00
        H9          H  0.6263519  0.7304428  0.5619345    0.00000       Uiso       1.00
       C19          C  0.5424646  0.4047292  0.2669938    0.00000       Uiso       1.00
       C20          C  0.5407008  0.4277490  0.2794652    0.00000       Uiso       1.00
       C21          C  0.5369309  0.4383159  0.3042962    0.00000       Uiso       1.00
       C22          C  0.5407003  0.3924166  0.2794647    0.00000       Uiso       1.00
       C23          C  0.5368251  0.4028276  0.3042944    0.00000       Uiso       1.00
       C24          C  0.5348146  0.4259589  0.3171575    0.00000       Uiso       1.00
       H10          H  0.6071556  0.6866303  0.5438096    0.00000       Uiso       1.00
       H11          H  0.6072477  0.4647881  0.5440108    0.00000       Uiso       1.00
       C25          C  0.4999993  0.5000013  0.5000018    0.00000       Uiso       1.00
       H12          H  0.5421589  0.3736508  0.2695629    0.00000       Uiso       1.00
       Cl1         Cl  0.2641703  0.3634407  0.5429513    0.00000       Uiso       1.00
       Cl2         Cl  0.5429534  0.4436864  0.2641789    0.00000       Uiso       1.00
       Cl3         Cl  0.5563163  0.7358269  0.6365598    0.00000       Uiso       1.00
       Cl4         Cl  0.6365538  0.4570463  0.5563166    0.00000       Uiso       1.00
       C26          C  0.3437691  0.4371495  0.5303621    0.00000       Uiso       1.00
       C27          C  0.3543353  0.4344002  0.5416694    0.00000       Uiso       1.00
       C28          C  0.3792334  0.4447649  0.5374159    0.00000       Uiso       1.00
       C29          C  0.3589203  0.4506164  0.5146719    0.00000       Uiso       1.00
       C30          C  0.3838130  0.4609608  0.5103986    0.00000       Uiso       1.00
       C31          C  0.3944070  0.4582214  0.5216999    0.00000       Uiso       1.00
       H13          H  0.5293012  0.5022181  0.5780411    0.00000       Uiso       1.00
       H14          H  0.5092064  0.6134295  0.5574398    0.00000       Uiso       1.00
       H15          H  0.3515714  0.4527607  0.5052760    0.00000       Uiso       1.00
       C32          C  0.5628462  0.4696357  0.5630167    0.00000       Uiso       1.00
       C33          C  0.5493823  0.4853286  0.5770222    0.00000       Uiso       1.00
       C34          C  0.5390390  0.4896031  0.5667477    0.00000       Uiso       1.00
       C35          C  0.5655938  0.4583266  0.5383944    0.00000       Uiso       1.00
       C36          C  0.5552299  0.4625811  0.5281150    0.00000       Uiso       1.00
       C37          C  0.5417767  0.4782997  0.5421135    0.00000       Uiso       1.00
       H16          H  0.3865733  0.4425390  0.5467622    0.00000       Uiso       1.00
       H17          H  0.4977812  0.4219628  0.3948793    0.00000       Uiso       1.00
       H18          H  0.5472407  0.4947267  0.5959105    0.00000       Uiso       1.00
       C38          C  0.5630169  0.6562300  0.5628519    0.00000       Uiso       1.00
       C39          C  0.5770211  0.6410778  0.5493949    0.00000       Uiso       1.00
       C40          C  0.5667453  0.6161852  0.5390502    0.00000       Uiso       1.00
       C41          C  0.5383962  0.6456652  0.5655906    0.00000       Uiso       1.00
       C42          C  0.5281161  0.6207676  0.5552242    0.00000       Uiso       1.00
       C43          C  0.5421134  0.6055933  0.5417777    0.00000       Uiso       1.00
       H19          H  0.5467828  0.4907956  0.3865742    0.00000       Uiso       1.00
       H20          H  0.3948724  0.4707036  0.4977882    0.00000       Uiso       1.00
       H21          H  0.5959083  0.6484261  0.5472584    0.00000       Uiso       1.00
       C44          C  0.5303633  0.4369843  0.3437746    0.00000       Uiso       1.00
       C45          C  0.5416787  0.4616055  0.3543400    0.00000       Uiso       1.00
       C46          C  0.5374278  0.4718851  0.3792371    0.00000       Uiso       1.00
       C47          C  0.5146664  0.4229788  0.3589256    0.00000       Uiso       1.00
       C48          C  0.5103949  0.4332539  0.3838177    0.00000       Uiso       1.00
       C49          C  0.5217051  0.4578864  0.3944106    0.00000       Uiso       1.00
       H22          H  0.5780349  0.6051224  0.5293148    0.00000       Uiso       1.00
       H23          H  0.5574539  0.4532350  0.5092034    0.00000       Uiso       1.00
       H24          H  0.5052655  0.4040909  0.3515773    0.00000       Uiso       1.00
       Cl5         Cl  0.3363155  0.4183742  0.5620125    0.00000       Uiso       1.00
       Cl6         Cl  0.5620309  0.4799532  0.3363194    0.00000       Uiso       1.00
       Cl7         Cl  0.5200508  0.6636877  0.5816038    0.00000       Uiso       1.00
       Cl8         Cl  0.5816175  0.4379812  0.5200456    0.00000       Uiso       1.00
       C50          C  0.4210936  0.4691834  0.5170022    0.00000       Uiso       1.00
       C51          C  0.4338405  0.4570189  0.5153016    0.00000       Uiso       1.00
       C52          C  0.4588233  0.4670169  0.5104343    0.00000       Uiso       1.00
       C53          C  0.4342260  0.4916388  0.5135397    0.00000       Uiso       1.00
       C54          C  0.4592018  0.5016178  0.5086575    0.00000       Uiso       1.00
       C55          C  0.4720163  0.4899589  0.5078199    0.00000       Uiso       1.00
       H25          H  0.4815047  0.4947616  0.5446380    0.00000       Uiso       1.00
       H26          H  0.4803211  0.5320808  0.5435464    0.00000       Uiso       1.00
       H27          H  0.4251720  0.5015714  0.5145815    0.00000       Uiso       1.00
       C56          C  0.5308156  0.4829973  0.5310862    0.00000       Uiso       1.00
       C57          C  0.5083610  0.4864607  0.5438725    0.00000       Uiso       1.00
       C58          C  0.4983822  0.4913452  0.5337597    0.00000       Uiso       1.00
       C59          C  0.5429800  0.4846976  0.5078755    0.00000       Uiso       1.00
       C60          C  0.5329821  0.4895671  0.4977599    0.00000       Uiso       1.00
       C61          C  0.5100412  0.4921834  0.5101244    0.00000       Uiso       1.00
       H28          H  0.4679206  0.4564512  0.5082068    0.00000       Uiso       1.00
       H29          H  0.5052288  0.4553565  0.4686211    0.00000       Uiso       1.00
       H30          H  0.4984320  0.4854197  0.5618177    0.00000       Uiso       1.00
       C62          C  0.5310876  0.5789071  0.5308152    0.00000       Uiso       1.00
       C63          C  0.5438745  0.5657752  0.5083614    0.00000       Uiso       1.00
       C64          C  0.5337602  0.5407993  0.4983836    0.00000       Uiso       1.00
       C65          C  0.5078769  0.5661605  0.5429792    0.00000       Uiso       1.00
       C66          C  0.4977587  0.5411777  0.5329823    0.00000       Uiso       1.00
       C67          C  0.5101231  0.5279851  0.5100420    0.00000       Uiso       1.00
       H31          H  0.5082151  0.5196791  0.4679238    0.00000       Uiso       1.00
       H32          H  0.4686152  0.5184987  0.5052474    0.00000       Uiso       1.00
       H33          H  0.5618196  0.5748296  0.4984290    0.00000       Uiso       1.00
       C68          C  0.5170060  0.4689115  0.4210968    0.00000       Uiso       1.00
       C69          C  0.5153091  0.4921238  0.4338425    0.00000       Uiso       1.00
       C70          C  0.5104387  0.5022414  0.4588254    0.00000       Uiso       1.00
       C71          C  0.5135349  0.4561226  0.4342306    0.00000       Uiso       1.00
       C72          C  0.5086486  0.4662373  0.4592066    0.00000       Uiso       1.00
       C73          C  0.5078163  0.4898757  0.4720197    0.00000       Uiso       1.00
       H34          H  0.5446404  0.5313874  0.4815047    0.00000       Uiso       1.00
       H35          H  0.5435469  0.4917977  0.4803257    0.00000       Uiso       1.00
       H36          H  0.5145726  0.4381758  0.4251790    0.00000       Uiso       1.00
       Cl9         Cl  0.4187832  0.4282347  0.5179947    0.00000       Uiso       1.00
      Cl10         Cl  0.5180169  0.5085461  0.4187794    0.00000       Uiso       1.00
      Cl11         Cl  0.4914578  0.5812218  0.5717607    0.00000       Uiso       1.00
      Cl12         Cl  0.5717653  0.4820078  0.4914562    0.00000       Uiso       1.00
       C74          C  0.1724612  0.0347259  0.2670029    0.00000       Uiso       1.00
       C75          C  0.1847733  0.0364897  0.2794741    0.00000       Uiso       1.00
       C76          C  0.1742794  0.0402603  0.3043049    0.00000       Uiso       1.00
       C77          C  0.1494414  0.0364897  0.2794741    0.00000       Uiso       1.00
       C78          C  0.1388974  0.0403643  0.3043038    0.00000       Uiso       1.00
       C79          C  0.1511766  0.0423757  0.3171667    0.00000       Uiso       1.00
       H37          H  0.1128524  0.9700307  0.5438132    0.00000       Uiso       1.00
       H38          H  0.8907129  0.9699363  0.5440174    0.00000       Uiso       1.00
       H39          H  0.1391188  0.0350310  0.2695726    0.00000       Uiso       1.00
       C80          C  0.1196470  0.9819119  0.5952802    0.00000       Uiso       1.00
       C81          C  0.1178832  0.9695998  0.5722608    0.00000       Uiso       1.00
       C82          C  0.1140087  0.9800115  0.5617173    0.00000       Uiso       1.00
       C83          C  0.1178830  0.0049312  0.6075927    0.00000       Uiso       1.00
       C84          C  0.1141129  0.0154983  0.5970993    0.00000       Uiso       1.00
       C85          C  0.1119976  0.0031422  0.5739967    0.00000       Uiso       1.00
       H40          H  0.1844384  0.0419794  0.3135411    0.00000       Uiso       1.00
       H41          H  0.1843426  0.2638181  0.5356808    0.00000       Uiso       1.00
       H42          H  0.1193418  0.9508340  0.5619379    0.00000       Uiso       1.00
       C86          C  0.8441735  0.9819120  0.5952802    0.00000       Uiso       1.00
       C87          C  0.8566447  0.0049314  0.6075926    0.00000       Uiso       1.00
       C88          C  0.8814752  0.0154751  0.5971819    0.00000       Uiso       1.00
       C89          C  0.8566449  0.9695999  0.5722607    0.00000       Uiso       1.00
       C90          C  0.8814763  0.9800943  0.5616940    0.00000       Uiso       1.00
       C91          C  0.8943381  0.0031962  0.5740509    0.00000       Uiso       1.00
       H43          H  0.1211972  0.2636605  0.5352249    0.00000       Uiso       1.00
       H44          H  0.1209930  0.0415204  0.3133834    0.00000       Uiso       1.00
       H45          H  0.8467430  0.0152540  0.6263582    0.00000       Uiso       1.00
       C92          C  0.1724612  0.3101999  0.5424771    0.00000       Uiso       1.00
       C93          C  0.1494414  0.2977285  0.5407130    0.00000       Uiso       1.00
       C94          C  0.1388740  0.2728970  0.5369429    0.00000       Uiso       1.00
       C95          C  0.1847733  0.2977285  0.5407130    0.00000       Uiso       1.00
       C96          C  0.1743618  0.2728982  0.5368376    0.00000       Uiso       1.00
       C97          C  0.1512305  0.2600351  0.5348269    0.00000       Uiso       1.00
       H46          H  0.8905557  0.0333792  0.6071629    0.00000       Uiso       1.00
       H47          H  0.1123940  0.0331747  0.6072583    0.00000       Uiso       1.00
       C98          C  0.0771843  0.0771871  0.5000110    0.00000       Uiso       1.00
       H48          H  0.2035391  0.3076303  0.5421718    0.00000       Uiso       1.00
      Cl13         Cl  0.2137451  0.0342378  0.2641875    0.00000       Uiso       1.00
      Cl14         Cl  0.1335047  0.3130155  0.5429653    0.00000       Uiso       1.00
      Cl15         Cl  0.8413580  0.9406282  0.5563236    0.00000       Uiso       1.00
      Cl16         Cl  0.1201349  0.0208679  0.6365641    0.00000       Uiso       1.00
       C99          C  0.1400365  0.0468272  0.3437840    0.00000       Uiso       1.00
      C100          C  0.1427853  0.0355195  0.3543501    0.00000       Uiso       1.00
      C101          C  0.1324206  0.0397729  0.3792477    0.00000       Uiso       1.00
      C102          C  0.1265701  0.0625179  0.3589348    0.00000       Uiso       1.00
      C103          C  0.1162256  0.0667911  0.3838269    0.00000       Uiso       1.00
      C104          C  0.1189645  0.0554893  0.3944208    0.00000       Uiso       1.00
       H49          H  0.0749650  0.9991456  0.5293124    0.00000       Uiso       1.00
       H50          H  0.9637564  0.0197489  0.5092161    0.00000       Uiso       1.00
       H51          H  0.1244262  0.0719142  0.3515860    0.00000       Uiso       1.00
      C105          C  0.1075467  0.0141689  0.5628573    0.00000       Uiso       1.00
      C106          C  0.0918537  0.0001634  0.5493934    0.00000       Uiso       1.00
      C107          C  0.0875798  0.0104385  0.5390502    0.00000       Uiso       1.00
      C108          C  0.1188563  0.0387917  0.5656052    0.00000       Uiso       1.00
      C109          C  0.1146023  0.0490716  0.5552413    0.00000       Uiso       1.00
      C110          C  0.0988837  0.0350732  0.5417880    0.00000       Uiso       1.00
       H52          H  0.1346460  0.0304262  0.3865874    0.00000       Uiso       1.00
       H53          H  0.1552248  0.1823115  0.4977941    0.00000       Uiso       1.00
       H54          H  0.0824555  0.9812752  0.5472518    0.00000       Uiso       1.00
      C111          C  0.9209557  0.0143365  0.5630254    0.00000       Uiso       1.00
      C112          C  0.9361078  0.0277935  0.5770295    0.00000       Uiso       1.00
      C113          C  0.9610004  0.0381382  0.5667542    0.00000       Uiso       1.00
      C114          C  0.9315205  0.0115979  0.5384051    0.00000       Uiso       1.00
      C115          C  0.9564182  0.0219644  0.5281255    0.00000       Uiso       1.00
      C116          C  0.9715925  0.0354109  0.5421228    0.00000       Uiso       1.00
       H55          H  0.0863925  0.1906172  0.5467939    0.00000       Uiso       1.00
       H56          H  0.1064831  0.0794018  0.3948860    0.00000       Uiso       1.00
       H57          H  0.9287595  0.0299298  0.5959163    0.00000       Uiso       1.00
      C117          C  0.1402045  0.2334175  0.5303755    0.00000       Uiso       1.00
      C118          C  0.1155832  0.2228520  0.5416903    0.00000       Uiso       1.00
      C119          C  0.1053031  0.1979544  0.5374394    0.00000       Uiso       1.00
      C120          C  0.1542096  0.2182661  0.5146790    0.00000       Uiso       1.00
      C121          C  0.1439339  0.1933735  0.5104074    0.00000       Uiso       1.00
      C122          C  0.1193013  0.1827804  0.5217171    0.00000       Uiso       1.00
       H58          H  0.9720632  0.0478736  0.5780438    0.00000       Uiso       1.00
       H59          H  0.1239488  0.0679836  0.5574654    0.00000       Uiso       1.00
       H60          H  0.1730976  0.2256144  0.5052786    0.00000       Uiso       1.00
      Cl17         Cl  0.1588107  0.0151757  0.3363307    0.00000       Uiso       1.00
      Cl18         Cl  0.0972361  0.2408731  0.5620419    0.00000       Uiso       1.00
      Cl19         Cl  0.9134983  0.9955852  0.5200597    0.00000       Uiso       1.00
      Cl20         Cl  0.1392016  0.0571406  0.5816289    0.00000       Uiso       1.00
      C123          C  0.1080024  0.0601869  0.4211069    0.00000       Uiso       1.00
      C124          C  0.1201666  0.0618871  0.4338538    0.00000       Uiso       1.00
      C125          C  0.1101685  0.0667543  0.4588361    0.00000       Uiso       1.00
      C126          C  0.0855472  0.0636496  0.4342388    0.00000       Uiso       1.00
      C127          C  0.0755681  0.0685317  0.4592140    0.00000       Uiso       1.00
      C128          C  0.0872267  0.0693690  0.4720285    0.00000       Uiso       1.00
       H61          H  0.0824228  0.0325497  0.4815168    0.00000       Uiso       1.00
       H62          H  0.0451042  0.0336420  0.4803326    0.00000       Uiso       1.00
       H63          H  0.0756149  0.0626081  0.4251847    0.00000       Uiso       1.00
      C129          C  0.0941867  0.0461010  0.5308270    0.00000       Uiso       1.00
      C130          C  0.0907233  0.0333147  0.5083727    0.00000       Uiso       1.00
      C131          C  0.0858393  0.0434281  0.4983940    0.00000       Uiso       1.00
      C132          C  0.0924869  0.0693123  0.5429912    0.00000       Uiso       1.00
      C133          C  0.0876179  0.0794284  0.5329934    0.00000       Uiso       1.00
      C134          C  0.0850016  0.0670639  0.5100527    0.00000       Uiso       1.00
       H64          H  0.1207340  0.0689816  0.4679334    0.00000       Uiso       1.00
       H65          H  0.1218293  0.1085680  0.5052410    0.00000       Uiso       1.00
       H66          H  0.0917638  0.0153692  0.4984438    0.00000       Uiso       1.00
      C135          C  0.9982787  0.0463735  0.5310977    0.00000       Uiso       1.00
      C136          C  0.0114105  0.0688275  0.5438846    0.00000       Uiso       1.00
      C137          C  0.0363864  0.0788053  0.5337708    0.00000       Uiso       1.00
      C138          C  0.0110247  0.0342092  0.5078874    0.00000       Uiso       1.00
      C139          C  0.0360075  0.0442062  0.4977698    0.00000       Uiso       1.00
      C140          C  0.0492005  0.0671468  0.5101342    0.00000       Uiso       1.00
       H67          H  0.0575076  0.1092662  0.5082263    0.00000       Uiso       1.00
       H68          H  0.0586875  0.0719421  0.4686270    0.00000       Uiso       1.00
       H69          H  0.0023562  0.0787601  0.5618291    0.00000       Uiso       1.00
      C141          C  0.1082757  0.1560937  0.5170179    0.00000       Uiso       1.00
      C142          C  0.0850635  0.1433480  0.5153207    0.00000       Uiso       1.00
      C143          C  0.0749452  0.1183645  0.5104501    0.00000       Uiso       1.00
      C144          C  0.1210641  0.1429594  0.5135470    0.00000       Uiso       1.00
      C145          C  0.1109488  0.1179828  0.5086606    0.00000       Uiso       1.00
      C146          C  0.0873104  0.1051697  0.5078281    0.00000       Uiso       1.00
       H70          H  0.0457985  0.0956845  0.5446509    0.00000       Uiso       1.00
       H71          H  0.0853876  0.0968629  0.5435581    0.00000       Uiso       1.00
       H72          H  0.1390108  0.1520109  0.5145848    0.00000       Uiso       1.00
      Cl21         Cl  0.1489505  0.0591938  0.4187971    0.00000       Uiso       1.00
      Cl22         Cl  0.0686418  0.1584117  0.5180281    0.00000       Uiso       1.00
      Cl23         Cl  0.9959635  0.0054273  0.4914684    0.00000       Uiso       1.00
      Cl24         Cl  0.0951767  0.0857316  0.5717762    0.00000       Uiso       1.00
      C147          C  0.5424646  0.3101907  0.1724552    0.00000       Uiso       1.00
      C148          C  0.5407003  0.2977191  0.1847671    0.00000       Uiso       1.00
      C149          C  0.5369291  0.2728877  0.1742733    0.00000       Uiso       1.00
      C150          C  0.5407008  0.2977196  0.1494357    0.00000       Uiso       1.00
      C151          C  0.5368256  0.2728894  0.1388919    0.00000       Uiso       1.00
      C152          C  0.5348136  0.2600259  0.1511708    0.00000       Uiso       1.00
       H73          H  0.6071519  0.0333722  0.1128481    0.00000       Uiso       1.00
       H74          H  0.6072498  0.0331713  0.8907118    0.00000       Uiso       1.00
       H75          H  0.5421599  0.3076215  0.1391133    0.00000       Uiso       1.00
      C153          C  0.5952694  0.9819041  0.1196424    0.00000       Uiso       1.00
      C154          C  0.6075819  0.0049237  0.1178788    0.00000       Uiso       1.00
      C155          C  0.5971707  0.0154676  0.1140042    0.00000       Uiso       1.00
      C156          C  0.5722497  0.9695917  0.1178783    0.00000       Uiso       1.00
      C157          C  0.5616831  0.9800857  0.1141080    0.00000       Uiso       1.00
      C158          C  0.5740395  0.0031883  0.1119930    0.00000       Uiso       1.00
       H76          H  0.5352096  0.2636512  0.1844321    0.00000       Uiso       1.00
       H77          H  0.3133676  0.0415082  0.1843330    0.00000       Uiso       1.00
       H78          H  0.6263477  0.0152466  0.1193377    0.00000       Uiso       1.00
      C159          C  0.5952735  0.9819084  0.8441729    0.00000       Uiso       1.00
      C160          C  0.5722535  0.9695957  0.8566438    0.00000       Uiso       1.00
      C161          C  0.5617099  0.9800066  0.8814737    0.00000       Uiso       1.00
      C162          C  0.6075857  0.0049277  0.8566443    0.00000       Uiso       1.00
      C163          C  0.5970915  0.0154945  0.8814752    0.00000       Uiso       1.00
      C164          C  0.5739888  0.0031374  0.8943366    0.00000       Uiso       1.00
       H79          H  0.3135262  0.0419650  0.1211886    0.00000       Uiso       1.00
       H80          H  0.5356695  0.2638097  0.1209877    0.00000       Uiso       1.00
       H81          H  0.5619305  0.9508299  0.8467421    0.00000       Uiso       1.00
      C165          C  0.2669864  0.0347125  0.1724512    0.00000       Uiso       1.00
      C166          C  0.2794581  0.0364768  0.1494319    0.00000       Uiso       1.00
      C167          C  0.3042894  0.0402468  0.1388650    0.00000       Uiso       1.00
      C168          C  0.2794576  0.0364763  0.1847633    0.00000       Uiso       1.00
      C169          C  0.3042877  0.0403515  0.1743523    0.00000       Uiso       1.00
      C170          C  0.3171510  0.0423625  0.1512215    0.00000       Uiso       1.00
       H82          H  0.5438056  0.9700254  0.8905538    0.00000       Uiso       1.00
       H83          H  0.5440068  0.9699267  0.1123890    0.00000       Uiso       1.00
      C171          C  0.4999985  0.0771779  0.0771791    0.00000       Uiso       1.00
       H84          H  0.2695556  0.0350173  0.2035286    0.00000       Uiso       1.00
      Cl25         Cl  0.5429522  0.3130057  0.2137385    0.00000       Uiso       1.00
      Cl26         Cl  0.2641715  0.0342249  0.1334952    0.00000       Uiso       1.00
      Cl27         Cl  0.6365578  0.0208650  0.8413580    0.00000       Uiso       1.00
      Cl28         Cl  0.5563123  0.9406197  0.1201299    0.00000       Uiso       1.00
      C172          C  0.5303617  0.2334081  0.1400309    0.00000       Uiso       1.00
      C173          C  0.5416688  0.2228414  0.1427798    0.00000       Uiso       1.00
      C174          C  0.5374150  0.1979433  0.1324151    0.00000       Uiso       1.00
      C175          C  0.5146709  0.2182573  0.1265644    0.00000       Uiso       1.00
      C176          C  0.5103972  0.1933646  0.1162200    0.00000       Uiso       1.00
      C177          C  0.5216985  0.1827702  0.1189590    0.00000       Uiso       1.00
       H85          H  0.5780385  0.0478744  0.0749608    0.00000       Uiso       1.00
       H86          H  0.5574372  0.0679733  0.9637537    0.00000       Uiso       1.00
       H87          H  0.5052750  0.2256064  0.1244204    0.00000       Uiso       1.00
      C178          C  0.5630134  0.0143283  0.1075420    0.00000       Uiso       1.00
      C179          C  0.5770193  0.0277926  0.0918494    0.00000       Uiso       1.00
      C180          C  0.5667448  0.0381363  0.0875754    0.00000       Uiso       1.00
      C181          C  0.5383907  0.0115806  0.1188510    0.00000       Uiso       1.00
      C182          C  0.5281113  0.0219449  0.1145969    0.00000       Uiso       1.00
      C183          C  0.5421101  0.0353987  0.0988788    0.00000       Uiso       1.00
       H88          H  0.5467613  0.1906032  0.1346407    0.00000       Uiso       1.00
       H89          H  0.3948745  0.0793952  0.1552168    0.00000       Uiso       1.00
       H90          H  0.5959080  0.0299342  0.0824514    0.00000       Uiso       1.00
      C184          C  0.5628486  0.0141631  0.9209536    0.00000       Uiso       1.00
      C185          C  0.5493913  0.0001584  0.9361053    0.00000       Uiso       1.00
      C186          C  0.5390466  0.0104338  0.9609975    0.00000       Uiso       1.00
      C187          C  0.5655878  0.0387838  0.9315183    0.00000       Uiso       1.00
      C188          C  0.5552214  0.0490635  0.9564156    0.00000       Uiso       1.00
      C189          C  0.5417744  0.0350657  0.9715895    0.00000       Uiso       1.00
       H91          H  0.3865685  0.0303951  0.0863855    0.00000       Uiso       1.00
       H92          H  0.4977865  0.1823055  0.1064775    0.00000       Uiso       1.00
       H93          H  0.5472547  0.9812717  0.9287571    0.00000       Uiso       1.00
      C190          C  0.3437685  0.0468138  0.1401961    0.00000       Uiso       1.00
      C191          C  0.3543339  0.0354989  0.1155753    0.00000       Uiso       1.00
      C192          C  0.3792314  0.0397497  0.1052957    0.00000       Uiso       1.00
      C193          C  0.3589200  0.0625103  0.1542012    0.00000       Uiso       1.00
      C194          C  0.3838126  0.0667818  0.1439260    0.00000       Uiso       1.00
      C195          C  0.3944055  0.0554721  0.1192940    0.00000       Uiso       1.00
       H94          H  0.5293110  0.9991443  0.9720599    0.00000       Uiso       1.00
       H95          H  0.5091994  0.0197208  0.1239430    0.00000       Uiso       1.00
       H96          H  0.3515718  0.0719109  0.1730888    0.00000       Uiso       1.00
      Cl29         Cl  0.5620126  0.2408608  0.1588053    0.00000       Uiso       1.00
      Cl30         Cl  0.3363128  0.0151472  0.0972281    0.00000       Uiso       1.00
      Cl31         Cl  0.5816015  0.0571297  0.9134965    0.00000       Uiso       1.00
      Cl32         Cl  0.5200416  0.9955568  0.1391958    0.00000       Uiso       1.00
      C196          C  0.5170003  0.1560836  0.1079971    0.00000       Uiso       1.00
      C197          C  0.5152996  0.1433361  0.1201610    0.00000       Uiso       1.00
      C198          C  0.5104318  0.1183533  0.1101630    0.00000       Uiso       1.00
      C199          C  0.5135376  0.1429517  0.0855421    0.00000       Uiso       1.00
      C200          C  0.5086550  0.1179759  0.0755631    0.00000       Uiso       1.00
      C201          C  0.5078171  0.1051609  0.0872215    0.00000       Uiso       1.00
       H97          H  0.5446357  0.0956719  0.0824182    0.00000       Uiso       1.00
       H98          H  0.5435440  0.0968567  0.0451001    0.00000       Uiso       1.00
       H99          H  0.5145796  0.1520061  0.0756100    0.00000       Uiso       1.00
      C202          C  0.5310829  0.0463602  0.0941817    0.00000       Uiso       1.00
      C203          C  0.5438697  0.0688150  0.0907185    0.00000       Uiso       1.00
      C204          C  0.5337569  0.0787943  0.0858345    0.00000       Uiso       1.00
      C205          C  0.5078717  0.0341960  0.0924816    0.00000       Uiso       1.00
      C206          C  0.4977561  0.0441943  0.0876125    0.00000       Uiso       1.00
      C207          C  0.5101210  0.0671355  0.0849964    0.00000       Uiso       1.00
      H100          H  0.5082042  0.1092556  0.1207283    0.00000       Uiso       1.00
      H101          H  0.4686173  0.0719475  0.1218229    0.00000       Uiso       1.00
      H102          H  0.5618153  0.0787439  0.0917594    0.00000       Uiso       1.00
      C208          C  0.5308120  0.0460910  0.9982751    0.00000       Uiso       1.00
      C209          C  0.5083575  0.0333038  0.0114064    0.00000       Uiso       1.00
      C210          C  0.4983798  0.0434177  0.0363818    0.00000       Uiso       1.00
      C211          C  0.5429765  0.0693015  0.0110211    0.00000       Uiso       1.00
      C212          C  0.5329795  0.0794192  0.0360034    0.00000       Uiso       1.00
      C213          C  0.5100387  0.0670546  0.0491958    0.00000       Uiso       1.00
      H103          H  0.4679199  0.0689630  0.0575023    0.00000       Uiso       1.00
      H104          H  0.5052446  0.1085630  0.0586827    0.00000       Uiso       1.00
      H105          H  0.4984248  0.0153590  0.0023521    0.00000       Uiso       1.00
      C214          C  0.4210921  0.0601711  0.1082689    0.00000       Uiso       1.00
      C215          C  0.4338380  0.0618686  0.0850572    0.00000       Uiso       1.00
      C216          C  0.4588214  0.0667390  0.0749395    0.00000       Uiso       1.00
      C217          C  0.4342261  0.0636417  0.1210572    0.00000       Uiso       1.00
      C218          C  0.4592026  0.0685280  0.1109425    0.00000       Uiso       1.00
      C219          C  0.4720159  0.0693608  0.0873046    0.00000       Uiso       1.00
      H106          H  0.4815004  0.0325373  0.0457935    0.00000       Uiso       1.00
      H107          H  0.4803215  0.0336297  0.0853820    0.00000       Uiso       1.00
      H108          H  0.4251744  0.0626037  0.1390036    0.00000       Uiso       1.00
      Cl33         Cl  0.5179929  0.1583928  0.1489445    0.00000       Uiso       1.00
      Cl34         Cl  0.4187747  0.0591615  0.0686355    0.00000       Uiso       1.00
      Cl35         Cl  0.5717586  0.0857209  0.9959605    0.00000       Uiso       1.00
      Cl36         Cl  0.4914517  0.0054104  0.0951711    0.00000       Uiso       1.00
      C220          C  0.2669772  0.4047158  0.1724420    0.00000       Uiso       1.00
      C221          C  0.2794486  0.4277356  0.1847544    0.00000       Uiso       1.00
      C222          C  0.3042801  0.4383025  0.1742611    0.00000       Uiso       1.00
      C223          C  0.2794486  0.3924037  0.1494225    0.00000       Uiso       1.00
      C224          C  0.3042789  0.4028154  0.1388791    0.00000       Uiso       1.00
      C225          C  0.3171422  0.4259464  0.1511586    0.00000       Uiso       1.00
      H109          H  0.5437976  0.6866229  0.1128431    0.00000       Uiso       1.00
      H110          H  0.5440018  0.4647816  0.8907035    0.00000       Uiso       1.00
      H111          H  0.2695468  0.3736379  0.1390996    0.00000       Uiso       1.00
      C226          C  0.5952659  0.7330046  0.1196388    0.00000       Uiso       1.00
      C227          C  0.5722460  0.7205331  0.1178747    0.00000       Uiso       1.00
      C228          C  0.5617020  0.6957028  0.1139996    0.00000       Uiso       1.00
      C229          C  0.6075780  0.7205331  0.1178747    0.00000       Uiso       1.00
      C230          C  0.5970839  0.6957017  0.1141040    0.00000       Uiso       1.00
      C231          C  0.5739810  0.6828398  0.1119884    0.00000       Uiso       1.00
      H112          H  0.3135165  0.4559788  0.1844203    0.00000       Uiso       1.00
      H113          H  0.5356562  0.4561840  0.1843244    0.00000       Uiso       1.00
      H114          H  0.5619234  0.7304349  0.1193336    0.00000       Uiso       1.00
      C232          C  0.5952657  0.4575303  0.8441652    0.00000       Uiso       1.00
      C233          C  0.6075779  0.4592941  0.8566364    0.00000       Uiso       1.00
      C234          C  0.5971665  0.4631694  0.8814662    0.00000       Uiso       1.00
      C235          C  0.5722459  0.4592941  0.8566364    0.00000       Uiso       1.00
      C236          C  0.5616786  0.4630638  0.8814672    0.00000       Uiso       1.00
      C237          C  0.5740352  0.4651799  0.8943288    0.00000       Uiso       1.00
      H115          H  0.5352002  0.3927403  0.1211790    0.00000       Uiso       1.00
      H116          H  0.3133588  0.3928347  0.1209749    0.00000       Uiso       1.00
      H117          H  0.6263437  0.4578354  0.8467348    0.00000       Uiso       1.00
      C238          C  0.5424513  0.4047159  0.1724419    0.00000       Uiso       1.00
      C239          C  0.5406874  0.3924038  0.1494224    0.00000       Uiso       1.00
      C240          C  0.5369180  0.4028984  0.1388557    0.00000       Uiso       1.00
      C241          C  0.5406875  0.4277357  0.1847543    0.00000       Uiso       1.00
      C242          C  0.5368128  0.4382797  0.1743434    0.00000       Uiso       1.00
      C243          C  0.5348023  0.4260011  0.1512125    0.00000       Uiso       1.00
      H118          H  0.6071473  0.4643266  0.8905464    0.00000       Uiso       1.00
      H119          H  0.6072426  0.6864653  0.1123849    0.00000       Uiso       1.00
      C244          C  0.4999908  0.4999914  0.0771707    0.00000       Uiso       1.00
      H120          H  0.5421461  0.4380583  0.2035199    0.00000       Uiso       1.00
      Cl37         Cl  0.2641616  0.4436723  0.2137258    0.00000       Uiso       1.00
      Cl38         Cl  0.5429394  0.3634320  0.1334853    0.00000       Uiso       1.00
      Cl39         Cl  0.5563092  0.4570421  0.8413498    0.00000       Uiso       1.00
      Cl40         Cl  0.6365497  0.7358201  0.1201270    0.00000       Uiso       1.00
      C245          C  0.3437601  0.4369727  0.1400192    0.00000       Uiso       1.00
      C246          C  0.3543269  0.4615961  0.1427686    0.00000       Uiso       1.00
      C247          C  0.3792251  0.4718762  0.1324045    0.00000       Uiso       1.00
      C248          C  0.3589109  0.4229664  0.1265528    0.00000       Uiso       1.00
      C249          C  0.3838036  0.4332415  0.1162089    0.00000       Uiso       1.00
      C250          C  0.3943982  0.4578767  0.1189484    0.00000       Uiso       1.00
      H121          H  0.5292955  0.6051186  0.0749544    0.00000       Uiso       1.00
      H122          H  0.5091980  0.4532083  0.9637447    0.00000       Uiso       1.00
      H123          H  0.3515616  0.4040770  0.1244084    0.00000       Uiso       1.00
      C251          C  0.5628409  0.6562220  0.1075368    0.00000       Uiso       1.00
      C252          C  0.5493771  0.6410707  0.0918438    0.00000       Uiso       1.00
      C253          C  0.5390332  0.6161779  0.0875693    0.00000       Uiso       1.00
      C254          C  0.5655881  0.6456560  0.1188457    0.00000       Uiso       1.00
      C255          C  0.5552237  0.6207576  0.1145911    0.00000       Uiso       1.00
      C256          C  0.5417703  0.6055842  0.0988726    0.00000       Uiso       1.00
      H124          H  0.3865654  0.4907886  0.1346305    0.00000       Uiso       1.00
      H125          H  0.4977708  0.4706873  0.1552079    0.00000       Uiso       1.00
      H126          H  0.5472359  0.6484198  0.0824459    0.00000       Uiso       1.00
      C257          C  0.5630090  0.4696310  0.9209457    0.00000       Uiso       1.00
      C258          C  0.5770131  0.4853302  0.9360978    0.00000       Uiso       1.00
      C259          C  0.5667372  0.4896023  0.9609900    0.00000       Uiso       1.00
      C260          C  0.5383881  0.4583135  0.9315099    0.00000       Uiso       1.00
      C261          C  0.5281079  0.4625646  0.9564070    0.00000       Uiso       1.00
      C262          C  0.5421053  0.4782897  0.9715813    0.00000       Uiso       1.00
      H127          H  0.5467718  0.4425505  0.0863769    0.00000       Uiso       1.00
      H128          H  0.3948627  0.4219473  0.1064663    0.00000       Uiso       1.00
      H129          H  0.5959005  0.4947329  0.9287500    0.00000       Uiso       1.00
      C263          C  0.5303516  0.4371420  0.1401872    0.00000       Uiso       1.00
      C264          C  0.5416671  0.4344016  0.1155665    0.00000       Uiso       1.00
      C265          C  0.5374168  0.4447688  0.1052870    0.00000       Uiso       1.00
      C266          C  0.5146551  0.4506021  0.1541922    0.00000       Uiso       1.00
      C267          C  0.5103841  0.4609480  0.1439171    0.00000       Uiso       1.00
      C268          C  0.5216944  0.4582187  0.1192852    0.00000       Uiso       1.00
      H130          H  0.5780270  0.5022193  0.9720526    0.00000       Uiso       1.00
      H131          H  0.5574473  0.6134158  0.1239371    0.00000       Uiso       1.00
      H132          H  0.5052541  0.4527406  0.1730797    0.00000       Uiso       1.00
      Cl41         Cl  0.3363076  0.4799460  0.1587941    0.00000       Uiso       1.00
      Cl42         Cl  0.5620187  0.4183850  0.0972194    0.00000       Uiso       1.00
      Cl43         Cl  0.5200426  0.4379588  0.9134874    0.00000       Uiso       1.00
      Cl44         Cl  0.5816118  0.6636762  0.1391910    0.00000       Uiso       1.00
      C269          C  0.4210849  0.4689038  0.1079870    0.00000       Uiso       1.00
      C270          C  0.4338322  0.4921150  0.1201515    0.00000       Uiso       1.00
      C271          C  0.4588151  0.5022326  0.1101540    0.00000       Uiso       1.00
      C272          C  0.4342171  0.4561180  0.0855321    0.00000       Uiso       1.00
      C273          C  0.4591929  0.4662326  0.0755535    0.00000       Uiso       1.00
      C274          C  0.4720078  0.4898688  0.0872125    0.00000       Uiso       1.00
      H133          H  0.4814974  0.5313739  0.0824100    0.00000       Uiso       1.00
      H134          H  0.4803131  0.4917787  0.0450913    0.00000       Uiso       1.00
      H135          H  0.4251628  0.4381730  0.0755995    0.00000       Uiso       1.00
      C275          C  0.5308087  0.5788978  0.0941749    0.00000       Uiso       1.00
      C276          C  0.5083541  0.5657660  0.0907112    0.00000       Uiso       1.00
      C277          C  0.4983748  0.5407893  0.0858266    0.00000       Uiso       1.00
      C278          C  0.5429726  0.5661505  0.0924748    0.00000       Uiso       1.00
      C279          C  0.5329742  0.5411671  0.0876052    0.00000       Uiso       1.00
      C280          C  0.5100332  0.5279742  0.0849885    0.00000       Uiso       1.00
      H136          H  0.4679126  0.5196683  0.1207197    0.00000       Uiso       1.00
      H137          H  0.5052201  0.5184847  0.1218148    0.00000       Uiso       1.00
      H138          H  0.4984255  0.5748236  0.0917520    0.00000       Uiso       1.00
      C281          C  0.5310794  0.4829874  0.9982669    0.00000       Uiso       1.00
      C282          C  0.5438659  0.4864522  0.0113984    0.00000       Uiso       1.00
      C283          C  0.5337516  0.4913360  0.0363737    0.00000       Uiso       1.00
      C284          C  0.5078687  0.4846875  0.0110126    0.00000       Uiso       1.00
      C285          C  0.4977505  0.4895551  0.0359948    0.00000       Uiso       1.00
      C286          C  0.5101147  0.4921716  0.0491874    0.00000       Uiso       1.00
      H139          H  0.5082055  0.4564503  0.0574933    0.00000       Uiso       1.00
      H140          H  0.4686061  0.4553548  0.0586731    0.00000       Uiso       1.00
      H141          H  0.5618108  0.4854103  0.0023443    0.00000       Uiso       1.00
      C287          C  0.5169959  0.4691813  0.1082603    0.00000       Uiso       1.00
      C288          C  0.5152990  0.4570178  0.0850483    0.00000       Uiso       1.00
      C289          C  0.5104291  0.4670132  0.0749307    0.00000       Uiso       1.00
      C290          C  0.5135253  0.4916334  0.1210489    0.00000       Uiso       1.00
      C291          C  0.5086396  0.5016089  0.1109342    0.00000       Uiso       1.00
      C292          C  0.5078073  0.4899514  0.0872962    0.00000       Uiso       1.00
      H142          H  0.5446315  0.4947488  0.0457856    0.00000       Uiso       1.00
      H143          H  0.5435386  0.5320666  0.0853747    0.00000       Uiso       1.00
      H144          H  0.5145630  0.5015662  0.1389954    0.00000       Uiso       1.00
      Cl45         Cl  0.4187751  0.5085351  0.1489350    0.00000       Uiso       1.00
      Cl46         Cl  0.5180061  0.4282395  0.0686262    0.00000       Uiso       1.00
      Cl47         Cl  0.4914502  0.4819891  0.9959517    0.00000       Uiso       1.00
      Cl48         Cl  0.5717579  0.5812063  0.0951650    0.00000       Uiso       1.00
      C293          C  0.1724479  0.4047251  0.5424638    0.00000       Uiso       1.00
      C294          C  0.1847606  0.4277452  0.5407002    0.00000       Uiso       1.00
      C295          C  0.1742672  0.4383120  0.5369294    0.00000       Uiso       1.00
      C296          C  0.1494281  0.3924127  0.5406997    0.00000       Uiso       1.00
      C297          C  0.1388847  0.4028243  0.5368249    0.00000       Uiso       1.00
      C298          C  0.1511644  0.4259555  0.5348138    0.00000       Uiso       1.00
      H145          H  0.1128474  0.6866304  0.6071576    0.00000       Uiso       1.00
      H146          H  0.8907045  0.4647858  0.6072489    0.00000       Uiso       1.00
      H147          H  0.1391051  0.3736467  0.5421581    0.00000       Uiso       1.00
      C299          C  0.1196434  0.7330123  0.5952767    0.00000       Uiso       1.00
      C300          C  0.1178791  0.7205406  0.6075886    0.00000       Uiso       1.00
      C301          C  0.1140040  0.6957105  0.5971770    0.00000       Uiso       1.00
      C302          C  0.1178796  0.7205411  0.5722572    0.00000       Uiso       1.00
      C303          C  0.1141089  0.6957099  0.5616902    0.00000       Uiso       1.00
      C304          C  0.1119931  0.6828477  0.5740461    0.00000       Uiso       1.00
      H148          H  0.1844266  0.4559884  0.5352105    0.00000       Uiso       1.00
      H149          H  0.1843340  0.4561968  0.3133752    0.00000       Uiso       1.00
      H150          H  0.1193377  0.7304422  0.6263542    0.00000       Uiso       1.00
      C305          C  0.8441657  0.4575339  0.5952725    0.00000       Uiso       1.00
      C306          C  0.8566374  0.4592983  0.5722533    0.00000       Uiso       1.00
      C307          C  0.8814678  0.4631741  0.5617101    0.00000       Uiso       1.00
      C308          C  0.8566369  0.4592977  0.6075847    0.00000       Uiso       1.00
      C309          C  0.8814682  0.4630680  0.5970908    0.00000       Uiso       1.00
      C310          C  0.8943303  0.4651846  0.5739889    0.00000       Uiso       1.00
      H151          H  0.1211877  0.3927522  0.3135318    0.00000       Uiso       1.00
      H152          H  0.1209802  0.3928433  0.5356686    0.00000       Uiso       1.00
      H153          H  0.8467359  0.4578396  0.5619306    0.00000       Uiso       1.00
      C311          C  0.1724520  0.4047292  0.2669938    0.00000       Uiso       1.00
      C312          C  0.1494320  0.3924166  0.2794648    0.00000       Uiso       1.00
      C313          C  0.1388647  0.4029107  0.3042957    0.00000       Uiso       1.00
      C314          C  0.1847644  0.4277490  0.2794653    0.00000       Uiso       1.00
      C315          C  0.1743530  0.4382926  0.3042950    0.00000       Uiso       1.00
      C316          C  0.1512215  0.4260134  0.3171575    0.00000       Uiso       1.00
      H154          H  0.8905483  0.4643317  0.5438064    0.00000       Uiso       1.00
      H155          H  0.1123901  0.6864737  0.5440142    0.00000       Uiso       1.00
      C317          C  0.0771759  0.4999999  0.5000018    0.00000       Uiso       1.00
      H156          H  0.2035304  0.4380721  0.2695639    0.00000       Uiso       1.00
      Cl49         Cl  0.2137324  0.4436823  0.5429525    0.00000       Uiso       1.00
      Cl50         Cl  0.1334949  0.3634448  0.2641778    0.00000       Uiso       1.00
      Cl51         Cl  0.8413497  0.4570452  0.6365558    0.00000       Uiso       1.00
      Cl52         Cl  0.1201322  0.7358284  0.5563208    0.00000       Uiso       1.00
      C318          C  0.1400249  0.4369818  0.5303622    0.00000       Uiso       1.00
      C319          C  0.1427742  0.4616050  0.5416697    0.00000       Uiso       1.00
      C320          C  0.1324100  0.4718849  0.5374163    0.00000       Uiso       1.00
      C321          C  0.1265585  0.4229755  0.5146714    0.00000       Uiso       1.00
      C322          C  0.1162145  0.4332505  0.5103983    0.00000       Uiso       1.00
      C323          C  0.1189539  0.4578856  0.5217000    0.00000       Uiso       1.00
      H157          H  0.0749585  0.6051260  0.5780427    0.00000       Uiso       1.00
      H158          H  0.9637475  0.4532143  0.5574375    0.00000       Uiso       1.00
      H159          H  0.1244142  0.4040861  0.5052752    0.00000       Uiso       1.00
      C324          C  0.1075416  0.6562301  0.5630196    0.00000       Uiso       1.00
      C325          C  0.0918482  0.6410783  0.5770246    0.00000       Uiso       1.00
      C326          C  0.0875738  0.6161856  0.5667496    0.00000       Uiso       1.00
      C327          C  0.1188511  0.6456646  0.5383973    0.00000       Uiso       1.00
      C328          C  0.1145965  0.6207663  0.5281174    0.00000       Uiso       1.00
      C329          C  0.0988775  0.6055924  0.5421154    0.00000       Uiso       1.00
      H160          H  0.1346359  0.4907973  0.5467629    0.00000       Uiso       1.00
      H161          H  0.1552159  0.4706985  0.3948801    0.00000       Uiso       1.00
      H162          H  0.0824498  0.6484269  0.5959129    0.00000       Uiso       1.00
      C330          C  0.9209478  0.4696362  0.5628492    0.00000       Uiso       1.00
      C331          C  0.9361003  0.4853359  0.5493926    0.00000       Uiso       1.00
      C332          C  0.9609930  0.4896085  0.5390484    0.00000       Uiso       1.00
      C333          C  0.9315120  0.4583189  0.5655879    0.00000       Uiso       1.00
      C334          C  0.9564098  0.4625705  0.5552219    0.00000       Uiso       1.00
      C335          C  0.9715845  0.4782960  0.5417758    0.00000       Uiso       1.00
      H163          H  0.0863840  0.4425608  0.3865736    0.00000       Uiso       1.00
      H164          H  0.1064720  0.4219563  0.4977875    0.00000       Uiso       1.00
      H165          H  0.9287524  0.4947386  0.5472563    0.00000       Uiso       1.00
      C336          C  0.1401957  0.4371537  0.3437746    0.00000       Uiso       1.00
      C337          C  0.1155744  0.4344128  0.3543396    0.00000       Uiso       1.00
      C338          C  0.1052944  0.4447795  0.3792367    0.00000       Uiso       1.00
      C339          C  0.1542007  0.4506138  0.3589261    0.00000       Uiso       1.00
      C340          C  0.1439251  0.4609592  0.3838181    0.00000       Uiso       1.00
      C341          C  0.1192927  0.4582294  0.3944106    0.00000       Uiso       1.00
      H166          H  0.9720560  0.5022258  0.5293133    0.00000       Uiso       1.00
      H167          H  0.1239430  0.6134249  0.5092059    0.00000       Uiso       1.00
      H168          H  0.1730885  0.4527527  0.3515781    0.00000       Uiso       1.00
      Cl53         Cl  0.1587996  0.4799548  0.5620134    0.00000       Uiso       1.00
      Cl54         Cl  0.0972273  0.4183963  0.3363186    0.00000       Uiso       1.00
      Cl55         Cl  0.9134891  0.4379637  0.5816005    0.00000       Uiso       1.00
      Cl56         Cl  0.1391969  0.6636853  0.5200490    0.00000       Uiso       1.00
      C342          C  0.1079925  0.4689125  0.5170022    0.00000       Uiso       1.00
      C343          C  0.1201571  0.4921239  0.5153022    0.00000       Uiso       1.00
      C344          C  0.1101596  0.5022414  0.5104349    0.00000       Uiso       1.00
      C345          C  0.0855372  0.4561265  0.5135392    0.00000       Uiso       1.00
      C346          C  0.0755586  0.4662410  0.5086570    0.00000       Uiso       1.00
      C347          C  0.0872178  0.4898774  0.5078200    0.00000       Uiso       1.00
      H169          H  0.0824147  0.5313818  0.5446386    0.00000       Uiso       1.00
      H170          H  0.0450954  0.4917861  0.5435458    0.00000       Uiso       1.00
      H171          H  0.0756045  0.4381813  0.5145806    0.00000       Uiso       1.00
      C348          C  0.0941800  0.5789061  0.5310877    0.00000       Uiso       1.00
      C349          C  0.0907160  0.5657741  0.5438737    0.00000       Uiso       1.00
      C350          C  0.0858315  0.5407975  0.5337604    0.00000       Uiso       1.00
      C351          C  0.0924802  0.5661592  0.5078768    0.00000       Uiso       1.00
      C352          C  0.0876107  0.5411758  0.4977607    0.00000       Uiso       1.00
      C353          C  0.0849938  0.5279827  0.5101250    0.00000       Uiso       1.00
      H172          H  0.1207255  0.5196774  0.5082079    0.00000       Uiso       1.00
      H173          H  0.1218212  0.5184944  0.4686221    0.00000       Uiso       1.00
      H174          H  0.0917566  0.5748314  0.5618191    0.00000       Uiso       1.00
      C354          C  0.9982706  0.4829943  0.5308138    0.00000       Uiso       1.00
      C355          C  0.0114026  0.4864596  0.5083603    0.00000       Uiso       1.00
      C356          C  0.0363784  0.4913439  0.4983830    0.00000       Uiso       1.00
      C357          C  0.0110162  0.4846945  0.5429781    0.00000       Uiso       1.00
      C358          C  0.0359989  0.4895626  0.5329816    0.00000       Uiso       1.00
      C359          C  0.0491921  0.4921796  0.5100415    0.00000       Uiso       1.00
      H175          H  0.0574987  0.4564590  0.4679229    0.00000       Uiso       1.00
      H176          H  0.0586780  0.4553630  0.5052465    0.00000       Uiso       1.00
      H177          H  0.0023485  0.4854177  0.4984278    0.00000       Uiso       1.00
      C360          C  0.1082671  0.4691915  0.4210968    0.00000       Uiso       1.00
      C361          C  0.0850547  0.4570274  0.4338420    0.00000       Uiso       1.00
      C362          C  0.0749365  0.4670222  0.4588250    0.00000       Uiso       1.00
      C363          C  0.1210557  0.4916435  0.4342312    0.00000       Uiso       1.00
      C364          C  0.1109406  0.5016185  0.4592072    0.00000       Uiso       1.00
      C365          C  0.0873020  0.4899605  0.4720198    0.00000       Uiso       1.00
      H178          H  0.0457907  0.4947571  0.4815042    0.00000       Uiso       1.00
      H179          H  0.0853804  0.5320756  0.4803264    0.00000       Uiso       1.00
      H180          H  0.1390027  0.5015768  0.4251800    0.00000       Uiso       1.00
      Cl57         Cl  0.1489411  0.5085445  0.5179959    0.00000       Uiso       1.00
      Cl58         Cl  0.0686326  0.4282491  0.4187783    0.00000       Uiso       1.00
      Cl59         Cl  0.9959547  0.4819953  0.5717593    0.00000       Uiso       1.00
      Cl60         Cl  0.0951706  0.5812153  0.4914577    0.00000       Uiso       1.00
      C366          C  0.1724478  0.0347124  0.1724512    0.00000       Uiso       1.00
      C367          C  0.1494280  0.0364762  0.1847633    0.00000       Uiso       1.00
      C368          C  0.1388616  0.0402474  0.1742699    0.00000       Uiso       1.00
      C369          C  0.1847604  0.0364767  0.1494319    0.00000       Uiso       1.00
      C370          C  0.1743493  0.0403519  0.1388885    0.00000       Uiso       1.00
      C371          C  0.1512183  0.0423633  0.1511676    0.00000       Uiso       1.00
      H181          H  0.8905464  0.9700222  0.1128473    0.00000       Uiso       1.00
      H182          H  0.1123906  0.9699310  0.8907109    0.00000       Uiso       1.00
      H183          H  0.2035262  0.0350181  0.1391093    0.00000       Uiso       1.00
      C372          C  0.8441654  0.9819040  0.1196425    0.00000       Uiso       1.00
      C373          C  0.8566365  0.9695916  0.1178784    0.00000       Uiso       1.00
      C374          C  0.8814667  0.9800033  0.1140038    0.00000       Uiso       1.00
      C375          C  0.8566369  0.0049236  0.1178789    0.00000       Uiso       1.00
      C376          C  0.8814681  0.0154906  0.1141087    0.00000       Uiso       1.00
      C377          C  0.8943297  0.0031342  0.1119931    0.00000       Uiso       1.00
      H184          H  0.1211853  0.0419665  0.1844289    0.00000       Uiso       1.00
      H185          H  0.1209835  0.2638084  0.1843363    0.00000       Uiso       1.00
      H186          H  0.8467346  0.9508256  0.1193368    0.00000       Uiso       1.00
      C378          C  0.1196433  0.9819083  0.8441730    0.00000       Uiso       1.00
      C379          C  0.1178793  0.0049276  0.8566445    0.00000       Uiso       1.00
      C380          C  0.1140034  0.0154708  0.8814743    0.00000       Uiso       1.00
      C381          C  0.1178790  0.9695956  0.8566439    0.00000       Uiso       1.00
      C382          C  0.1141087  0.9800894  0.8814747    0.00000       Uiso       1.00
      C383          C  0.1119925  0.0031914  0.8943367    0.00000       Uiso       1.00
      H187          H  0.1844281  0.2636517  0.1211919    0.00000       Uiso       1.00
      H188          H  0.1843303  0.0415084  0.1209844    0.00000       Uiso       1.00
      H189          H  0.1193384  0.0152506  0.8467430    0.00000       Uiso       1.00
      C384          C  0.1724519  0.3101905  0.1724553    0.00000       Uiso       1.00
      C385          C  0.1847643  0.2977194  0.1494358    0.00000       Uiso       1.00
      C386          C  0.1742698  0.2728880  0.1388685    0.00000       Uiso       1.00
      C387          C  0.1494319  0.2977189  0.1847672    0.00000       Uiso       1.00
      C388          C  0.1388879  0.2728887  0.1743558    0.00000       Uiso       1.00
      C389          C  0.1511668  0.2600259  0.1512248    0.00000       Uiso       1.00
      H190          H  0.1128463  0.0333749  0.8905548    0.00000       Uiso       1.00
      H191          H  0.8907047  0.0331671  0.1123900    0.00000       Uiso       1.00
      C390          C  0.0771770  0.0771784  0.0771792    0.00000       Uiso       1.00
      H192          H  0.1391090  0.3076204  0.2035327    0.00000       Uiso       1.00
      Cl61         Cl  0.1334906  0.0342237  0.2137344    0.00000       Uiso       1.00
      Cl62         Cl  0.2137363  0.3130066  0.1334993    0.00000       Uiso       1.00
      Cl63         Cl  0.1201309  0.9406238  0.8413569    0.00000       Uiso       1.00
      Cl64         Cl  0.8413503  0.0208607  0.1201312    0.00000       Uiso       1.00
      C391          C  0.1401924  0.0468154  0.1400281    0.00000       Uiso       1.00
      C392          C  0.1155692  0.0355078  0.1427771    0.00000       Uiso       1.00
      C393          C  0.1052897  0.0397616  0.1324129    0.00000       Uiso       1.00
      C394          C  0.1541992  0.0625065  0.1265621    0.00000       Uiso       1.00
      C395          C  0.1439246  0.0667802  0.1162182    0.00000       Uiso       1.00
      C396          C  0.1192895  0.0554785  0.1189571    0.00000       Uiso       1.00
      H193          H  0.9720510  0.9991373  0.0749602    0.00000       Uiso       1.00
      H194          H  0.1239620  0.0197421  0.9637530    0.00000       Uiso       1.00
      H195          H  0.1730886  0.0719027  0.1244182    0.00000       Uiso       1.00
      C397          C  0.9209473  0.0141607  0.1075420    0.00000       Uiso       1.00
      C398          C  0.9360988  0.0001553  0.0918491    0.00000       Uiso       1.00
      C399          C  0.9609914  0.0104302  0.0875751    0.00000       Uiso       1.00
      C400          C  0.9315132  0.0387834  0.1188515    0.00000       Uiso       1.00
      C401          C  0.9564116  0.0490633  0.1145974    0.00000       Uiso       1.00
      C402          C  0.9715851  0.0350649  0.0988789    0.00000       Uiso       1.00
      H196          H  0.0863773  0.0304150  0.1346384    0.00000       Uiso       1.00
      H197          H  0.1064800  0.1823017  0.1552184    0.00000       Uiso       1.00
      H198          H  0.9287500  0.9812672  0.0824508    0.00000       Uiso       1.00
      C403          C  0.1075408  0.0143311  0.9209538    0.00000       Uiso       1.00
      C404          C  0.0918415  0.0277881  0.9361058    0.00000       Uiso       1.00
      C405          C  0.0875689  0.0381323  0.9609980    0.00000       Uiso       1.00
      C406          C  0.1188578  0.0115920  0.9315180    0.00000       Uiso       1.00
      C407          C  0.1146061  0.0219580  0.9564152    0.00000       Uiso       1.00
      C408          C  0.0988810  0.0354044  0.9715895    0.00000       Uiso       1.00
      H199          H  0.1346186  0.1906091  0.0863879    0.00000       Uiso       1.00
      H200          H  0.1552191  0.0793912  0.1064760    0.00000       Uiso       1.00
      H201          H  0.0824392  0.0299248  0.9287579    0.00000       Uiso       1.00
      C409          C  0.1400261  0.2334084  0.1401989    0.00000       Uiso       1.00
      C410          C  0.1427669  0.2228434  0.1155781    0.00000       Uiso       1.00
      C411          C  0.1323998  0.1979459  0.1052981    0.00000       Uiso       1.00
      C412          C  0.1265655  0.2182565  0.1542036    0.00000       Uiso       1.00
      C413          C  0.1162197  0.1933640  0.1439280    0.00000       Uiso       1.00
      C414          C  0.1189495  0.1827715  0.1192959    0.00000       Uiso       1.00
      H202          H  0.0749520  0.0478677  0.9720606    0.00000       Uiso       1.00
      H203          H  0.9637532  0.0679751  0.1239438    0.00000       Uiso       1.00
      H204          H  0.1244265  0.2256045  0.1730911    0.00000       Uiso       1.00
      Cl65         Cl  0.0972189  0.0151635  0.1588020    0.00000       Uiso       1.00
      Cl66         Cl  0.1587841  0.2408650  0.0972315    0.00000       Uiso       1.00
      Cl67         Cl  0.1392126  0.9955794  0.9134957    0.00000       Uiso       1.00
      Cl68         Cl  0.9134931  0.0571322  0.1391968    0.00000       Uiso       1.00
      C415          C  0.1082630  0.0601767  0.1079957    0.00000       Uiso       1.00
      C416          C  0.0850518  0.0618769  0.1201599    0.00000       Uiso       1.00
      C417          C  0.0749348  0.0667446  0.1101623    0.00000       Uiso       1.00
      C418          C  0.1210493  0.0636399  0.0855410    0.00000       Uiso       1.00
      C419          C  0.1109352  0.0685225  0.0755624    0.00000       Uiso       1.00
      C420          C  0.0872991  0.0693598  0.0872210    0.00000       Uiso       1.00
      H205          H  0.0457943  0.0325407  0.0824173    0.00000       Uiso       1.00
      H206          H  0.0853899  0.0336335  0.0450993    0.00000       Uiso       1.00
      H207          H  0.1389943  0.0625984  0.0756087    0.00000       Uiso       1.00
      C421          C  0.9982715  0.0460926  0.0941818    0.00000       Uiso       1.00
      C422          C  0.0114023  0.0333060  0.0907181    0.00000       Uiso       1.00
      C423          C  0.0363790  0.0434193  0.0858340    0.00000       Uiso       1.00
      C424          C  0.0110183  0.0693040  0.0924822    0.00000       Uiso       1.00
      C425          C  0.0360017  0.0794201  0.0876131    0.00000       Uiso       1.00
      C426          C  0.0491943  0.0670553  0.0849965    0.00000       Uiso       1.00
      H208          H  0.0574990  0.0689718  0.1207278    0.00000       Uiso       1.00
      H209          H  0.0586832  0.1085587  0.1218235    0.00000       Uiso       1.00
      H210          H  0.0023447  0.0153603  0.0917585    0.00000       Uiso       1.00
      C427          C  0.0941828  0.0463665  0.9982752    0.00000       Uiso       1.00
      C428          C  0.0907179  0.0688205  0.0114070    0.00000       Uiso       1.00
      C429          C  0.0858335  0.0787978  0.0363824    0.00000       Uiso       1.00
      C430          C  0.0924820  0.0342017  0.0110206    0.00000       Uiso       1.00
      C431          C  0.0876139  0.0441982  0.0360029    0.00000       Uiso       1.00
      C432          C  0.0849974  0.0671387  0.0491959    0.00000       Uiso       1.00
      H211          H  0.1207186  0.1092579  0.0575029    0.00000       Uiso       1.00
      H212          H  0.1218134  0.0719333  0.0586822    0.00000       Uiso       1.00
      H213          H  0.0917602  0.0787534  0.0023531    0.00000       Uiso       1.00
      C433          C  0.1079870  0.1560849  0.1082704    0.00000       Uiso       1.00
      C434          C  0.1201508  0.1433395  0.0850584    0.00000       Uiso       1.00
      C435          C  0.1101555  0.1183561  0.0749403    0.00000       Uiso       1.00
      C436          C  0.0855347  0.1429503  0.1210585    0.00000       Uiso       1.00
      C437          C  0.0755592  0.1179738  0.1109433    0.00000       Uiso       1.00
      C438          C  0.0872170  0.1051610  0.0873052    0.00000       Uiso       1.00
      H214          H  0.0824208  0.0956770  0.0457945    0.00000       Uiso       1.00
      H215          H  0.0451023  0.0968548  0.0853830    0.00000       Uiso       1.00
      H216          H  0.0756015  0.1520016  0.1390050    0.00000       Uiso       1.00
      Cl69         Cl  0.0686310  0.0591829  0.1489431    0.00000       Uiso       1.00
      Cl70         Cl  0.1489294  0.1584035  0.0686370    0.00000       Uiso       1.00
      Cl71         Cl  0.0951806  0.0054198  0.9959593    0.00000       Uiso       1.00
      Cl72         Cl  0.9959634  0.0857238  0.0951724    0.00000       Uiso       1.00
      C439          C  0.6146865  0.7960423  0.6345008    0.00000       Uiso       1.00
      C440          C  0.6136047  0.8166347  0.6549430    0.00000       Uiso       1.00
      C441          C  0.5922447  0.8172891  0.6745629    0.00000       Uiso       1.00
      C442          C  0.5918174  0.8376413  0.6953532    0.00000       Uiso       1.00
      C443          C  0.6130921  0.8573270  0.6975342    0.00000       Uiso       1.00
      C444          C  0.6344994  0.8561297  0.6776703    0.00000       Uiso       1.00
      C445          C  0.6348271  0.8368886  0.6557447    0.00000       Uiso       1.00
        O1          O  0.5958571  0.7744490  0.6312202    0.00000       Uiso       1.00
      H217          H  0.5758451  0.8019183  0.6736886    0.00000       Uiso       1.00
      H218          H  0.5747130  0.8375532  0.7096618    0.00000       Uiso       1.00
      H219          H  0.6513389  0.8695089  0.6797319    0.00000       Uiso       1.00
      C446          C  0.7811106  0.9427149  0.6146885    0.00000       Uiso       1.00
      C447          C  0.7605115  0.9222777  0.6136038    0.00000       Uiso       1.00
      C448          C  0.7598564  0.9026498  0.5922488    0.00000       Uiso       1.00
      C449          C  0.7395039  0.8818585  0.5918275    0.00000       Uiso       1.00
      C450          C  0.7198208  0.8796808  0.6131037    0.00000       Uiso       1.00
      C451          C  0.7210166  0.8995591  0.6345029    0.00000       Uiso       1.00
      C452          C  0.7402565  0.9214855  0.6348228    0.00000       Uiso       1.00
        O2          O  0.8027132  0.9459783  0.5958657    0.00000       Uiso       1.00
      H220          H  0.7752289  0.9035113  0.5758508    0.00000       Uiso       1.00
      H221          H  0.7395957  0.8675447  0.5747262    0.00000       Uiso       1.00
      H222          H  0.7076449  0.8975113  0.6513463    0.00000       Uiso       1.00
      C453          C  0.6344687  0.9624891  0.7811242    0.00000       Uiso       1.00
      C454          C  0.6548958  0.9635788  0.7605222    0.00000       Uiso       1.00
      C455          C  0.6745054  0.9849454  0.7598639    0.00000       Uiso       1.00
      C456          C  0.6952902  0.9853822  0.7395040    0.00000       Uiso       1.00
      C457          C  0.6974737  0.9641093  0.7198155    0.00000       Uiso       1.00
      C458          C  0.6776118  0.9426965  0.7210131    0.00000       Uiso       1.00
      C459          C  0.6556940  0.9423593  0.7402675    0.00000       Uiso       1.00
        O3          O  0.6311954  0.9813195  0.8027157    0.00000       Uiso       1.00
      H223          H  0.6736268  0.0013376  0.7752451    0.00000       Uiso       1.00
      H224          H  0.7095957  0.0024890  0.7395927    0.00000       Uiso       1.00
      H225          H  0.6796713  0.9258584  0.7076287    0.00000       Uiso       1.00
      C460          C  0.6155704  0.9414544  0.7821025    0.00000       Uiso       1.00
      C461          C  0.6151187  0.9204055  0.7620761    0.00000       Uiso       1.00
      C462          C  0.5954935  0.8990818  0.7629853    0.00000       Uiso       1.00
      C463          C  0.5949821  0.8784484  0.7424784    0.00000       Uiso       1.00
      C464          C  0.6134858  0.8790519  0.7201874    0.00000       Uiso       1.00
      C465          C  0.6328295  0.9008982  0.7195649    0.00000       Uiso       1.00
      C466          C  0.6348899  0.9210756  0.7404775    0.00000       Uiso       1.00
        O4          O  0.5975597  0.9439745  0.8044088    0.00000       Uiso       1.00
      H226          H  0.5805652  0.8984601  0.7797239    0.00000       Uiso       1.00
      H227          H  0.5798556  0.8622206  0.7443546    0.00000       Uiso       1.00
      H228          H  0.6457049  0.9027317  0.7024898    0.00000       Uiso       1.00
      C467          C  0.7820747  0.9616316  0.6357148    0.00000       Uiso       1.00
      C468          C  0.7620396  0.9620897  0.6567562    0.00000       Uiso       1.00
      C469          C  0.7629289  0.9817352  0.6780688    0.00000       Uiso       1.00
      C470          C  0.7424150  0.9822469  0.6986935    0.00000       Uiso       1.00
      C471          C  0.7201337  0.9637193  0.6980957    0.00000       Uiso       1.00
      C472          C  0.7195318  0.9443574  0.6762587    0.00000       Uiso       1.00
      C473          C  0.7404521  0.9423029  0.6560917    0.00000       Uiso       1.00
        O5          O  0.8043783  0.9796456  0.6331941    0.00000       Uiso       1.00
      H229          H  0.7796615  0.9966757  0.6786922    0.00000       Uiso       1.00
      H230          H  0.7442834  0.9973921  0.7149117    0.00000       Uiso       1.00
      H231          H  0.7024661  0.9314627  0.6744137    0.00000       Uiso       1.00
      C474          C  0.6357164  0.7950813  0.6155863    0.00000       Uiso       1.00
      C475          C  0.6567597  0.8151121  0.6151385    0.00000       Uiso       1.00
      C476          C  0.6780679  0.8142223  0.5954902    0.00000       Uiso       1.00
      C477          C  0.6986936  0.8347350  0.5949733    0.00000       Uiso       1.00
      C478          C  0.6981027  0.8570166  0.6135073    0.00000       Uiso       1.00
      C479          C  0.6762695  0.8576166  0.6328804    0.00000       Uiso       1.00
      C480          C  0.6560993  0.8366956  0.6349311    0.00000       Uiso       1.00
        O6          O  0.6331938  0.7727879  0.5975577    0.00000       Uiso       1.00
      H232          H  0.6786818  0.7974883  0.5805482    0.00000       Uiso       1.00
      H233          H  0.7149050  0.8328649  0.5798181    0.00000       Uiso       1.00
      H234          H  0.6744289  0.8746833  0.6457839    0.00000       Uiso       1.00
        B1          B  0.6078214  0.7598212  0.6076940    0.00000       Uiso       1.00
        B2          B  0.8173501  0.9694986  0.6078275    0.00000       Uiso       1.00
        B3          B  0.6076888  0.9693529  0.8173627    0.00000       Uiso       1.00
      C481          C  0.6344930  0.4531402  0.6146849    0.00000       Uiso       1.00
      C482          C  0.6549351  0.4519083  0.6136032    0.00000       Uiso       1.00
      C483          C  0.6745557  0.4495144  0.5922436    0.00000       Uiso       1.00
      C484          C  0.6953459  0.4495251  0.5918164    0.00000       Uiso       1.00
      C485          C  0.6975265  0.4532947  0.6130906    0.00000       Uiso       1.00
      C486          C  0.6776620  0.4560348  0.6344973    0.00000       Uiso       1.00
      C487          C  0.6557363  0.4536780  0.6348249    0.00000       Uiso       1.00
        O7          O  0.6312129  0.4526241  0.5958561    0.00000       Uiso       1.00
      H235          H  0.6736817  0.4476115  0.5758444    0.00000       Uiso       1.00
      H236          H  0.7096550  0.4468178  0.5747125    0.00000       Uiso       1.00
      H237          H  0.6797233  0.4615563  0.6513364    0.00000       Uiso       1.00
      C488          C  0.6146757  0.4530745  0.7811041    0.00000       Uiso       1.00
      C489          C  0.6135916  0.4518285  0.7605056    0.00000       Uiso       1.00
      C490          C  0.5922366  0.4494462  0.7598503    0.00000       Uiso       1.00
      C491          C  0.5918158  0.4494643  0.7394986    0.00000       Uiso       1.00
      C492          C  0.6130928  0.4532359  0.7198160    0.00000       Uiso       1.00
      C493          C  0.6344920  0.4559525  0.7210119    0.00000       Uiso       1.00
      C494          C  0.6348113  0.4535854  0.7402512    0.00000       Uiso       1.00
        O8          O  0.5958524  0.4525903  0.8027060    0.00000       Uiso       1.00
      H238          H  0.5758381  0.4475587  0.7752224    0.00000       Uiso       1.00
      H239          H  0.5747145  0.4467686  0.7395903    0.00000       Uiso       1.00
      H240          H  0.6513361  0.4614727  0.7076408    0.00000       Uiso       1.00
      C495          C  0.7811158  0.4530984  0.6344664    0.00000       Uiso       1.00
      C496          C  0.7605132  0.4518334  0.6548930    0.00000       Uiso       1.00
      C497          C  0.7598542  0.4494173  0.6745018    0.00000       Uiso       1.00
      C498          C  0.7394937  0.4494048  0.6952860    0.00000       Uiso       1.00
      C499          C  0.7198052  0.4531727  0.6974696    0.00000       Uiso       1.00
      C500          C  0.7210035  0.4559220  0.6776084    0.00000       Uiso       1.00
      C501          C  0.7402585  0.4535962  0.6556911    0.00000       Uiso       1.00
        O9          O  0.8027073  0.4525863  0.6311932    0.00000       Uiso       1.00
      H241          H  0.7752353  0.4475273  0.6736234    0.00000       Uiso       1.00
      H242          H  0.7395818  0.4466914  0.7095913    0.00000       Uiso       1.00
      H243          H  0.7076192  0.4614352  0.6796680    0.00000       Uiso       1.00
      C502          C  0.7820947  0.4562138  0.6155688    0.00000       Uiso       1.00
      C503          C  0.7620683  0.4567845  0.6151171    0.00000       Uiso       1.00
      C504          C  0.7629781  0.4593930  0.5954926    0.00000       Uiso       1.00
      C505          C  0.7424713  0.4590082  0.5949813    0.00000       Uiso       1.00
      C506          C  0.7201796  0.4546165  0.6134842    0.00000       Uiso       1.00
      C507          C  0.7195565  0.4514909  0.6328273    0.00000       Uiso       1.00
      C508          C  0.7404690  0.4542865  0.6348878    0.00000       Uiso       1.00
       O10          O  0.8044016  0.4579899  0.5975587    0.00000       Uiso       1.00
      H244          H  0.7797174  0.4618256  0.5805649    0.00000       Uiso       1.00
      H245          H  0.7443480  0.4619860  0.5798552    0.00000       Uiso       1.00
      H246          H  0.7024808  0.4454572  0.6457021    0.00000       Uiso       1.00
      C509          C  0.6357022  0.4561484  0.7820683    0.00000       Uiso       1.00
      C510          C  0.6567441  0.4566972  0.7620338    0.00000       Uiso       1.00
      C511          C  0.6780568  0.4592535  0.7629231    0.00000       Uiso       1.00
      C512          C  0.6986820  0.4588531  0.7424098    0.00000       Uiso       1.00
      C513          C  0.6980848  0.4545023  0.7201289    0.00000       Uiso       1.00
      C514          C  0.6762477  0.4514252  0.7195270    0.00000       Uiso       1.00
      C515          C  0.6560802  0.4542325  0.7404468    0.00000       Uiso       1.00
       O11          O  0.6331809  0.4579167  0.8043712    0.00000       Uiso       1.00
      H247          H  0.6786798  0.4616686  0.7796553    0.00000       Uiso       1.00
      H248          H  0.7149003  0.4617947  0.7442782    0.00000       Uiso       1.00
      H249          H  0.6744030  0.4454095  0.7024617    0.00000       Uiso       1.00
      C516          C  0.6155780  0.4562162  0.6357143    0.00000       Uiso       1.00
      C517          C  0.6151296  0.4567802  0.6567569    0.00000       Uiso       1.00
      C518          C  0.5954807  0.4593294  0.6780646    0.00000       Uiso       1.00
      C519          C  0.5949633  0.4589249  0.6986897    0.00000       Uiso       1.00
      C520          C  0.6134971  0.4545862  0.6980987    0.00000       Uiso       1.00
      C521          C  0.6328707  0.4515267  0.6762660    0.00000       Uiso       1.00
      C522          C  0.6349221  0.4543289  0.6560965    0.00000       Uiso       1.00
       O12          O  0.5975495  0.4579585  0.6331918    0.00000       Uiso       1.00
      H250          H  0.5805387  0.4617352  0.6786786    0.00000       Uiso       1.00
      H251          H  0.5798076  0.4618508  0.7149007    0.00000       Uiso       1.00
      H252          H  0.6457741  0.4455228  0.6744253    0.00000       Uiso       1.00
        B4          B  0.6076865  0.4556897  0.6078201    0.00000       Uiso       1.00
        B5          B  0.6078138  0.4556685  0.8173425    0.00000       Uiso       1.00
        B6          B  0.8173552  0.4556941  0.6076874    0.00000       Uiso       1.00
       Si1         Si  0.1949103  0.3822463  0.5695905    0.00000       Uiso       1.00
        B7          B  0.2406361  0.3903394  0.5408363    0.00000       Uiso       1.00
       O13          O  0.2224228  0.3794232  0.5592264    0.00000       Uiso       1.00
       O14          O  0.1977413  0.4022262  0.5592377    0.00000       Uiso       1.00
        B8          B  0.1868365  0.3911377  0.5408385    0.00000       Uiso       1.00
        B9          B  0.1860355  0.3365330  0.5408338    0.00000       Uiso       1.00
       O15          O  0.1749369  0.3547429  0.5592148    0.00000       Uiso       1.00
       O16          O  0.2359528  0.3889013  0.5214003    0.00000       Uiso       1.00
       O17          O  0.1882683  0.3684533  0.5214080    0.00000       Uiso       1.00
       O18          O  0.2087296  0.3412252  0.5214169    0.00000       Uiso       1.00
       Si2         Si  0.2143399  0.3628288  0.5113291    0.00000       Uiso       1.00
       O19          O  0.1846320  0.3925204  0.6004015    0.00000       Uiso       1.00
      H253          H  0.1834104  0.3801025  0.6048867    0.00000       Uiso       1.00
       O20          O  0.2246269  0.3525673  0.4805175    0.00000       Uiso       1.00
      H254          H  0.2114941  0.3376823  0.4760239    0.00000       Uiso       1.00
       Si3         Si  0.5695928  0.3822602  0.1949191    0.00000       Uiso       1.00
       B10          B  0.5408375  0.3911375  0.2406438    0.00000       Uiso       1.00
       O21          O  0.5592285  0.4022315  0.2224314    0.00000       Uiso       1.00
       O22          O  0.5592392  0.3547577  0.1977492    0.00000       Uiso       1.00
       B11          B  0.5408397  0.3365418  0.1868442    0.00000       Uiso       1.00
       B12          B  0.5408366  0.3903425  0.1860448    0.00000       Uiso       1.00
       O23          O  0.5592176  0.3794150  0.1749462    0.00000       Uiso       1.00
       O24          O  0.5214010  0.3684559  0.2359600    0.00000       Uiso       1.00
       O25          O  0.5214093  0.3412277  0.1882761    0.00000       Uiso       1.00
       O26          O  0.5214190  0.3889268  0.2087381    0.00000       Uiso       1.00
       Si4         Si  0.5113303  0.3628448  0.2143475    0.00000       Uiso       1.00
       O27          O  0.6004043  0.3925193  0.1846414    0.00000       Uiso       1.00
      H255          H  0.6048901  0.4082013  0.1834203    0.00000       Uiso       1.00
       O28          O  0.4805181  0.3525811  0.2246340    0.00000       Uiso       1.00
      H256          H  0.4760247  0.3498398  0.2115014    0.00000       Uiso       1.00
      C523          C  0.1240395  0.9624984  0.6345034    0.00000       Uiso       1.00
      C524          C  0.1252711  0.9635798  0.6549453    0.00000       Uiso       1.00
      C525          C  0.1276653  0.9849396  0.6745656    0.00000       Uiso       1.00
      C526          C  0.1276543  0.9853666  0.6953555    0.00000       Uiso       1.00
      C527          C  0.1238841  0.9640918  0.6975359    0.00000       Uiso       1.00
      C528          C  0.1211437  0.9426847  0.6776717    0.00000       Uiso       1.00
      C529          C  0.1235008  0.9423574  0.6557464    0.00000       Uiso       1.00
       O29          O  0.1245562  0.9813278  0.6312234    0.00000       Uiso       1.00
      H257          H  0.1295684  0.0013389  0.6736916    0.00000       Uiso       1.00
      H258          H  0.1303616  0.0024703  0.7096643    0.00000       Uiso       1.00
      H259          H  0.1156218  0.9258452  0.6797328    0.00000       Uiso       1.00
      C530          C  0.1241005  0.7960746  0.6146864    0.00000       Uiso       1.00
      C531          C  0.1253471  0.8166737  0.6136023    0.00000       Uiso       1.00
      C532          C  0.1277297  0.8173292  0.5922476    0.00000       Uiso       1.00
      C533          C  0.1277123  0.8376817  0.5918269    0.00000       Uiso       1.00
      C534          C  0.1239410  0.8573645  0.6131035    0.00000       Uiso       1.00
      C535          C  0.1212240  0.8561683  0.6345024    0.00000       Uiso       1.00
      C536          C  0.1235905  0.8369283  0.6348217    0.00000       Uiso       1.00
       O30          O  0.1245843  0.7744723  0.5958633    0.00000       Uiso       1.00
      H260          H  0.1296170  0.8019570  0.5758493    0.00000       Uiso       1.00
      H261          H  0.1304081  0.8375901  0.5747258    0.00000       Uiso       1.00
      H262          H  0.1157041  0.8695396  0.6513460    0.00000       Uiso       1.00
      C537          C  0.1240785  0.9427142  0.7811240    0.00000       Uiso       1.00
      C538          C  0.1253433  0.9222872  0.7605217    0.00000       Uiso       1.00
      C539          C  0.1277588  0.9026778  0.7598627    0.00000       Uiso       1.00
      C540          C  0.1277709  0.8818932  0.7395025    0.00000       Uiso       1.00
      C541          C  0.1240033  0.8797100  0.7198143    0.00000       Uiso       1.00
      C542          C  0.1212546  0.8995718  0.7210126    0.00000       Uiso       1.00
      C543          C  0.1235807  0.9214893  0.7402673    0.00000       Uiso       1.00
       O31          O  0.1245904  0.9459871  0.8027152    0.00000       Uiso       1.00
      H263          H  0.1296485  0.9035559  0.7752437    0.00000       Uiso       1.00
      H264          H  0.1304839  0.8675876  0.7395908    0.00000       Uiso       1.00
      H265          H  0.1157416  0.8975123  0.7076284    0.00000       Uiso       1.00
      C544          C  0.1209637  0.9616123  0.7821028    0.00000       Uiso       1.00
      C545          C  0.1203933  0.9620644  0.7620768    0.00000       Uiso       1.00
      C546          C  0.1177855  0.9816894  0.7629866    0.00000       Uiso       1.00
      C547          C  0.1181706  0.9822011  0.7424800    0.00000       Uiso       1.00
      C548          C  0.1225620  0.9636979  0.7201887    0.00000       Uiso       1.00
      C549          C  0.1256869  0.9443541  0.7195656    0.00000       Uiso       1.00
      C550          C  0.1228911  0.9422934  0.7404779    0.00000       Uiso       1.00
       O32          O  0.1191879  0.9796227  0.8044094    0.00000       Uiso       1.00
      H266          H  0.1153531  0.9966174  0.7797255    0.00000       Uiso       1.00
      H267          H  0.1151932  0.9973276  0.7443567    0.00000       Uiso       1.00
      H268          H  0.1317204  0.9314791  0.7024903    0.00000       Uiso       1.00
      C551          C  0.1210263  0.7951101  0.6357124    0.00000       Uiso       1.00
      C552          C  0.1204779  0.8151449  0.6567541    0.00000       Uiso       1.00
      C553          C  0.1179212  0.8142553  0.6780664    0.00000       Uiso       1.00
      C554          C  0.1183219  0.8347688  0.6986913    0.00000       Uiso       1.00
      C555          C  0.1226734  0.8570503  0.6980942    0.00000       Uiso       1.00
      C556          C  0.1257507  0.8576525  0.6762575    0.00000       Uiso       1.00
      C557          C  0.1229431  0.8367324  0.6560903    0.00000       Uiso       1.00
       O33          O  0.1192574  0.7728065  0.6331912    0.00000       Uiso       1.00
      H269          H  0.1155056  0.7975225  0.6786893    0.00000       Uiso       1.00
      H270          H  0.1153801  0.8329002  0.7149093    0.00000       Uiso       1.00
      H271          H  0.1317669  0.8747182  0.6744129    0.00000       Uiso       1.00
      C558          C  0.1209632  0.9414687  0.6155885    0.00000       Uiso       1.00
      C559          C  0.1203986  0.9204255  0.6151401    0.00000       Uiso       1.00
      C560          C  0.1178491  0.8991175  0.5954915    0.00000       Uiso       1.00
      C561          C  0.1182530  0.8784918  0.5949740    0.00000       Uiso       1.00
      C562          C  0.1225913  0.8790825  0.6135077    0.00000       Uiso       1.00
      C563          C  0.1256513  0.9009154  0.6328811    0.00000       Uiso       1.00
      C564          C  0.1228496  0.9210856  0.6349325    0.00000       Uiso       1.00
       O34          O  0.1192212  0.9439915  0.5975603    0.00000       Uiso       1.00
      H272          H  0.1154435  0.8985038  0.5805497    0.00000       Uiso       1.00
      H273          H  0.1153269  0.8622805  0.5798187    0.00000       Uiso       1.00
      H274          H  0.1316549  0.9027559  0.6457844    0.00000       Uiso       1.00
       B13          B  0.1214906  0.9693638  0.6076972    0.00000       Uiso       1.00
       B14          B  0.1215056  0.7598351  0.6078246    0.00000       Uiso       1.00
       B15          B  0.1214832  0.9694934  0.8173627    0.00000       Uiso       1.00
       Si5         Si  0.1949399  0.0075991  0.1949282    0.00000       Uiso       1.00
       B16          B  0.1868472  0.0363536  0.2406532    0.00000       Uiso       1.00
       O35          O  0.1977629  0.0179630  0.2224403    0.00000       Uiso       1.00
       O36          O  0.1749607  0.0179524  0.1977589    0.00000       Uiso       1.00
       B17          B  0.1860496  0.0363522  0.1868544    0.00000       Uiso       1.00
       B18          B  0.2406536  0.0363561  0.1860542    0.00000       Uiso       1.00
       O37          O  0.2224436  0.0179749  0.1749555    0.00000       Uiso       1.00
       O38          O  0.1882859  0.0557901  0.2359700    0.00000       Uiso       1.00
       O39          O  0.2087343  0.0557829  0.1882865    0.00000       Uiso       1.00
       O40          O  0.2359617  0.0557733  0.2087479    0.00000       Uiso       1.00
       Si6         Si  0.2143586  0.0658616  0.2143578    0.00000       Uiso       1.00
       O41          O  0.1846655  0.9767880  0.1846499    0.00000       Uiso       1.00
      H275          H  0.1970830  0.9723024  0.1834285    0.00000       Uiso       1.00
       O42          O  0.2246208  0.0966738  0.2246448    0.00000       Uiso       1.00
      H276          H  0.2395058  0.1011676  0.2115123    0.00000       Uiso       1.00
      C565          C  0.6146815  0.9426796  0.1240351    0.00000       Uiso       1.00
      C566          C  0.6135994  0.9222370  0.1252667    0.00000       Uiso       1.00
      C567          C  0.5922393  0.9026165  0.1276606    0.00000       Uiso       1.00
      C568          C  0.5918117  0.8818260  0.1276495    0.00000       Uiso       1.00
      C569          C  0.6130862  0.8796452  0.1238797    0.00000       Uiso       1.00
      C570          C  0.6344936  0.8995098  0.1211397    0.00000       Uiso       1.00
      C571          C  0.6348215  0.9214357  0.1234967    0.00000       Uiso       1.00
       O43          O  0.5958524  0.9459599  0.1245515    0.00000       Uiso       1.00
      H277          H  0.5758399  0.9034907  0.1295636    0.00000       Uiso       1.00
      H278          H  0.5747073  0.8675169  0.1303568    0.00000       Uiso       1.00
      H279          H  0.6513329  0.8974484  0.1156180    0.00000       Uiso       1.00
      C572          C  0.7811034  0.9624947  0.1240987    0.00000       Uiso       1.00
      C573          C  0.7605047  0.9635791  0.1253449    0.00000       Uiso       1.00
      C574          C  0.7598497  0.9849344  0.1277275    0.00000       Uiso       1.00
      C575          C  0.7394976  0.9853554  0.1277097    0.00000       Uiso       1.00
      C576          C  0.7198145  0.9640785  0.1239382    0.00000       Uiso       1.00
      C577          C  0.7210101  0.9426792  0.1212213    0.00000       Uiso       1.00
      C578          C  0.7402497  0.9423594  0.1235880    0.00000       Uiso       1.00
       O44          O  0.8027059  0.9813180  0.1245828    0.00000       Uiso       1.00
      H280          H  0.7752220  0.0013324  0.1296149    0.00000       Uiso       1.00
      H281          H  0.7395894  0.0024564  0.1304055    0.00000       Uiso       1.00
      H282          H  0.7076385  0.9258352  0.1157012    0.00000       Uiso       1.00
      C579          C  0.6344611  0.7960543  0.1240744    0.00000       Uiso       1.00
      C580          C  0.6548883  0.8166569  0.1253395    0.00000       Uiso       1.00
      C581          C  0.6744974  0.8173155  0.1277552    0.00000       Uiso       1.00
      C582          C  0.6952823  0.8376761  0.1277677    0.00000       Uiso       1.00
      C583          C  0.6974661  0.8573649  0.1240002    0.00000       Uiso       1.00
      C584          C  0.6776046  0.8561669  0.1212512    0.00000       Uiso       1.00
      C585          C  0.6556869  0.8369120  0.1235769    0.00000       Uiso       1.00
       O45          O  0.6311876  0.7744625  0.1245862    0.00000       Uiso       1.00
      H283          H  0.6736188  0.8019342  0.1296449    0.00000       Uiso       1.00
      H284          H  0.7095877  0.8375876  0.1304808    0.00000       Uiso       1.00
      H285          H  0.6796645  0.8695515  0.1157383    0.00000       Uiso       1.00
      C586          C  0.6155632  0.7950758  0.1209594    0.00000       Uiso       1.00
      C587          C  0.6151118  0.8151025  0.1203890    0.00000       Uiso       1.00
      C588          C  0.5954870  0.8141930  0.1177809    0.00000       Uiso       1.00
      C589          C  0.5949759  0.8347001  0.1181660    0.00000       Uiso       1.00
      C590          C  0.6134795  0.8569918  0.1225576    0.00000       Uiso       1.00
      C591          C  0.6328229  0.8576145  0.1256828    0.00000       Uiso       1.00
      C592          C  0.6348830  0.8367016  0.1228870    0.00000       Uiso       1.00
       O46          O  0.5975525  0.7727689  0.1191833    0.00000       Uiso       1.00
      H286          H  0.5805588  0.7974539  0.1153483    0.00000       Uiso       1.00
      H287          H  0.5798497  0.8328237  0.1151884    0.00000       Uiso       1.00
      H288          H  0.6456982  0.8746901  0.1317164    0.00000       Uiso       1.00
      C593          C  0.7820673  0.9414680  0.1210245    0.00000       Uiso       1.00
      C594          C  0.7620322  0.9204261  0.1204758    0.00000       Uiso       1.00
      C595          C  0.7629212  0.8991131  0.1179191    0.00000       Uiso       1.00
      C596          C  0.7424073  0.8784879  0.1183195    0.00000       Uiso       1.00
      C597          C  0.7201262  0.8790852  0.1226706    0.00000       Uiso       1.00
      C598          C  0.7195246  0.9009227  0.1257479    0.00000       Uiso       1.00
      C599          C  0.7404450  0.9210902  0.1229406    0.00000       Uiso       1.00
       O47          O  0.8043706  0.9439891  0.1192560    0.00000       Uiso       1.00
      H289          H  0.7796537  0.8984901  0.1155038    0.00000       Uiso       1.00
      H290          H  0.7442756  0.8622695  0.1153778    0.00000       Uiso       1.00
      H291          H  0.7024590  0.9027675  0.1317637    0.00000       Uiso       1.00
      C600          C  0.6357115  0.9615947  0.1209592    0.00000       Uiso       1.00
      C601          C  0.6567544  0.9620428  0.1203949    0.00000       Uiso       1.00
      C602          C  0.6780627  0.9816918  0.1178458    0.00000       Uiso       1.00
      C603          C  0.6986881  0.9822090  0.1182499    0.00000       Uiso       1.00
      C604          C  0.6980968  0.9636746  0.1225882    0.00000       Uiso       1.00
      C605          C  0.6762636  0.9443009  0.1256477    0.00000       Uiso       1.00
      C606          C  0.6560937  0.9422499  0.1228459    0.00000       Uiso       1.00
       O48          O  0.6331893  0.9796236  0.1192172    0.00000       Uiso       1.00
      H292          H  0.6786769  0.9966339  0.1154402    0.00000       Uiso       1.00
      H293          H  0.7148996  0.9973645  0.1153241    0.00000       Uiso       1.00
      H294          H  0.6744226  0.9313973  0.1316513    0.00000       Uiso       1.00
       B19          B  0.6078170  0.9694867  0.1214862    0.00000       Uiso       1.00
       B20          B  0.8173425  0.9693562  0.1215043    0.00000       Uiso       1.00
       B21          B  0.6076812  0.7598149  0.1214787    0.00000       Uiso       1.00
       Si7         Si  0.1949011  0.3822453  0.1949194    0.00000       Uiso       1.00
       B22          B  0.2406266  0.3911235  0.1868271    0.00000       Uiso       1.00
       O49          O  0.2224138  0.4022170  0.1977429    0.00000       Uiso       1.00
       O50          O  0.1977316  0.3547432  0.1749399    0.00000       Uiso       1.00
       B23          B  0.1868262  0.3365270  0.1860280    0.00000       Uiso       1.00
       B24          B  0.1860260  0.3903269  0.2406320    0.00000       Uiso       1.00
       O51          O  0.1749275  0.3793994  0.2224221    0.00000       Uiso       1.00
       O52          O  0.2359427  0.3684419  0.1882652    0.00000       Uiso       1.00
       O53          O  0.1882578  0.3412126  0.2087121    0.00000       Uiso       1.00
       O54          O  0.2087198  0.3889115  0.2359401    0.00000       Uiso       1.00
       Si8         Si  0.2143295  0.3628299  0.2143369    0.00000       Uiso       1.00
       O55          O  0.1846234  0.3925045  0.1846453    0.00000       Uiso       1.00
      H295          H  0.1834021  0.4081863  0.1970630    0.00000       Uiso       1.00
       O56          O  0.2246160  0.3525663  0.2245984    0.00000       Uiso       1.00
      H296          H  0.2114830  0.3498246  0.2394830    0.00000       Uiso       1.00
