data_66
_audit_creation_date              0000-00-00
_audit_creation_method            'LanYouShi'
_symmetry_space_group_name_H-M    'P1'
_cell_length_a                    66.9181976
_cell_length_b                    66.9181976
_cell_length_c                    66.9181976
_cell_angle_alpha                 119.9992981
_cell_angle_beta                  119.9992981
_cell_angle_gamma                 60.0000000
loop_
_atom_site_label
_atom_site_type_symbol
_atom_site_fract_x
_atom_site_fract_y
_atom_site_fract_z
_atom_site_U_iso_or_equiv
_atom_site_adp_type
_atom_site_occupancy
        C1          C  0.4029069  0.4029068  0.5432756    0.00000       Uiso       1.00
        C2          C  0.3903595  0.4263661  0.5414780    0.00000       Uiso       1.00
        C3          C  0.4010535  0.4371345  0.5376350    0.00000       Uiso       1.00
        C4          C  0.4263662  0.3903594  0.5414780    0.00000       Uiso       1.00
        C5          C  0.4371112  0.4009697  0.5375291    0.00000       Uiso       1.00
        C6          C  0.4245974  0.4245423  0.5354791    0.00000       Uiso       1.00
        H1          H  0.4636483  0.6901919  0.6092010    0.00000       Uiso       1.00
        H2          H  0.6900308  0.4641139  0.6092973    0.00000       Uiso       1.00
        H3          H  0.4368860  0.3712354  0.5429646    0.00000       Uiso       1.00
        C7          C  0.4567236  0.7374588  0.5970924    0.00000       Uiso       1.00
        C8          C  0.4585210  0.7247491  0.6096396    0.00000       Uiso       1.00
        C9          C  0.4624700  0.6994451  0.5990295    0.00000       Uiso       1.00
       C10          C  0.4585214  0.7247496  0.5736333    0.00000       Uiso       1.00
       C11          C  0.4623640  0.6994444  0.5628648    0.00000       Uiso       1.00
       C12          C  0.4645197  0.6863368  0.5754570    0.00000       Uiso       1.00
        H4          H  0.3907004  0.4551482  0.5358830    0.00000       Uiso       1.00
        H5          H  0.3908005  0.4553598  0.3098101    0.00000       Uiso       1.00
        H6          H  0.4570343  0.7348397  0.6287635    0.00000       Uiso       1.00
       C13          C  0.7374585  0.4567236  0.5970922    0.00000       Uiso       1.00
       C14          C  0.7247493  0.4585215  0.5736333    0.00000       Uiso       1.00
       C15          C  0.6994451  0.4624712  0.5628886    0.00000       Uiso       1.00
       C16          C  0.7247489  0.4585211  0.6096395    0.00000       Uiso       1.00
       C17          C  0.6994438  0.4623632  0.5989452    0.00000       Uiso       1.00
       C18          C  0.6863365  0.4645201  0.5754020    0.00000       Uiso       1.00
        H7          H  0.4551519  0.3907044  0.3099707    0.00000       Uiso       1.00
        H8          H  0.4553575  0.3907983  0.5363508    0.00000       Uiso       1.00
        H9          H  0.7348402  0.4570349  0.5631135    0.00000       Uiso       1.00
       C19          C  0.4029099  0.4029098  0.2625436    0.00000       Uiso       1.00
       C20          C  0.4263691  0.3903623  0.2752529    0.00000       Uiso       1.00
       C21          C  0.4371376  0.4010567  0.3005580    0.00000       Uiso       1.00
       C22          C  0.3903624  0.4263689  0.2752529    0.00000       Uiso       1.00
       C23          C  0.4009721  0.4371138  0.3005568    0.00000       Uiso       1.00
       C24          C  0.4245448  0.4246003  0.3136652    0.00000       Uiso       1.00
       H10          H  0.6901915  0.4636508  0.5446429    0.00000       Uiso       1.00
       H11          H  0.4641160  0.6900319  0.5448512    0.00000       Uiso       1.00
       C25          C  0.5000010  0.4999995  0.5000011    0.00000       Uiso       1.00
       H12          H  0.3712384  0.4368889  0.2651623    0.00000       Uiso       1.00
        F1          F  0.3653640  0.4401158  0.5434210    0.00000       Uiso       1.00
        F2          F  0.4401189  0.3653669  0.2620643    0.00000       Uiso       1.00
        F3          F  0.7379375  0.4565778  0.6346347    0.00000       Uiso       1.00
        F4          F  0.4565786  0.7379385  0.5598838    0.00000       Uiso       1.00
       C26          C  0.4359500  0.4357789  0.5309423    0.00000       Uiso       1.00
       C27          C  0.4331482  0.4608721  0.5424656    0.00000       Uiso       1.00
       C28          C  0.4437106  0.4713482  0.5381306    0.00000       Uiso       1.00
       C29          C  0.4496737  0.4215053  0.5149521    0.00000       Uiso       1.00
       C30          C  0.4602155  0.4319763  0.5105971    0.00000       Uiso       1.00
       C31          C  0.4574239  0.4570816  0.5221143    0.00000       Uiso       1.00
       H13          H  0.5022603  0.6071320  0.5795311    0.00000       Uiso       1.00
       H14          H  0.6155939  0.4523214  0.5585346    0.00000       Uiso       1.00
       H15          H  0.4518589  0.4022554  0.5053768    0.00000       Uiso       1.00
       C32          C  0.4690561  0.6592113  0.5642202    0.00000       Uiso       1.00
       C33          C  0.4850486  0.6437703  0.5784929    0.00000       Uiso       1.00
       C34          C  0.4894046  0.6184026  0.5680221    0.00000       Uiso       1.00
       C35          C  0.4575311  0.6484440  0.5391277    0.00000       Uiso       1.00
       C36          C  0.4618668  0.6230705  0.5286518    0.00000       Uiso       1.00
       C37          C  0.4778854  0.6076071  0.5429175    0.00000       Uiso       1.00
       H16          H  0.4414423  0.4906215  0.5476555    0.00000       Uiso       1.00
       H17          H  0.4204729  0.4701385  0.3928717    0.00000       Uiso       1.00
       H18          H  0.4946261  0.6512594  0.5977420    0.00000       Uiso       1.00
       C38          C  0.6592112  0.4690567  0.5640494    0.00000       Uiso       1.00
       C39          C  0.6437698  0.4850559  0.5503356    0.00000       Uiso       1.00
       C40          C  0.6184021  0.4894100  0.5397937    0.00000       Uiso       1.00
       C41          C  0.6484448  0.4575234  0.5668406    0.00000       Uiso       1.00
       C42          C  0.6230720  0.4618561  0.5562766    0.00000       Uiso       1.00
       C43          C  0.6076081  0.4778816  0.5425734    0.00000       Uiso       1.00
       H19          H  0.4906192  0.4414638  0.3844070    0.00000       Uiso       1.00
       H20          H  0.4701442  0.4204666  0.4977456    0.00000       Uiso       1.00
       H21          H  0.6512582  0.4946379  0.5481582    0.00000       Uiso       1.00
       C44          C  0.4357808  0.4359534  0.3407906    0.00000       Uiso       1.00
       C45          C  0.4608719  0.4331602  0.3515574    0.00000       Uiso       1.00
       C46          C  0.4713477  0.4437248  0.3769299    0.00000       Uiso       1.00
       C47          C  0.4215081  0.4496704  0.3562312    0.00000       Uiso       1.00
       C48          C  0.4319794  0.4602133  0.3815987    0.00000       Uiso       1.00
       C49          C  0.4570820  0.4574314  0.3923935    0.00000       Uiso       1.00
       H22          H  0.6071283  0.5022680  0.5298724    0.00000       Uiso       1.00
       H23          H  0.4523423  0.6155890  0.5093792    0.00000       Uiso       1.00
       H24          H  0.4022598  0.4518501  0.3487428    0.00000       Uiso       1.00
        F5          F  0.4193219  0.4767033  0.5600170    0.00000       Uiso       1.00
        F6          F  0.4767012  0.4193419  0.3360097    0.00000       Uiso       1.00
        F7          F  0.6639937  0.4399621  0.5806560    0.00000       Uiso       1.00
        F8          F  0.4399782  0.6639912  0.5232973    0.00000       Uiso       1.00
       C50          C  0.4685950  0.4683189  0.5173267    0.00000       Uiso       1.00
       C51          C  0.4561983  0.4919733  0.5155938    0.00000       Uiso       1.00
       C52          C  0.4663872  0.5022838  0.5106334    0.00000       Uiso       1.00
       C53          C  0.4914789  0.4552889  0.5137977    0.00000       Uiso       1.00
       C54          C  0.5016484  0.4655965  0.5088221    0.00000       Uiso       1.00
       C55          C  0.4897670  0.4896838  0.5079687    0.00000       Uiso       1.00
       H25          H  0.4946615  0.5319805  0.5454900    0.00000       Uiso       1.00
       H26          H  0.5326928  0.4916292  0.5443770    0.00000       Uiso       1.00
       H27          H  0.5016010  0.4370013  0.5148593    0.00000       Uiso       1.00
       C56          C  0.4826726  0.5804115  0.5316795    0.00000       Uiso       1.00
       C57          C  0.4862022  0.5670291  0.5447100    0.00000       Uiso       1.00
       C58          C  0.4911798  0.5415757  0.5344039    0.00000       Uiso       1.00
       C59          C  0.4844053  0.5674213  0.5080254    0.00000       Uiso       1.00
       C60          C  0.4893676  0.5419611  0.4977165    0.00000       Uiso       1.00
       C61          C  0.4920340  0.5285164  0.5103171    0.00000       Uiso       1.00
       H28          H  0.4556198  0.5200525  0.5083635    0.00000       Uiso       1.00
       H29          H  0.4545041  0.5188468  0.4680216    0.00000       Uiso       1.00
       H30          H  0.4851414  0.5762592  0.5629980    0.00000       Uiso       1.00
       C62          C  0.5804127  0.4826695  0.5314019    0.00000       Uiso       1.00
       C63          C  0.5670300  0.4862009  0.5085194    0.00000       Uiso       1.00
       C64          C  0.5415775  0.4911784  0.4983515    0.00000       Uiso       1.00
       C65          C  0.5674228  0.4844022  0.5437985    0.00000       Uiso       1.00
       C66          C  0.5419633  0.4893631  0.5336109    0.00000       Uiso       1.00
       C67          C  0.5285188  0.4920300  0.5102327    0.00000       Uiso       1.00
       H31          H  0.5200541  0.4556276  0.4673101    0.00000       Uiso       1.00
       H32          H  0.5188513  0.4545108  0.5053465    0.00000       Uiso       1.00
       H33          H  0.5762572  0.4851390  0.4983972    0.00000       Uiso       1.00
       C68          C  0.4683175  0.4686028  0.4195893    0.00000       Uiso       1.00
       C69          C  0.4919728  0.4562067  0.4325781    0.00000       Uiso       1.00
       C70          C  0.5022837  0.4663924  0.4580382    0.00000       Uiso       1.00
       C71          C  0.4552847  0.4914833  0.4329742    0.00000       Uiso       1.00
       C72          C  0.4655925  0.5016488  0.4584271    0.00000       Uiso       1.00
       C73          C  0.4896821  0.4897684  0.4714847    0.00000       Uiso       1.00
       H34          H  0.5319859  0.4946566  0.4811502    0.00000       Uiso       1.00
       H35          H  0.4916408  0.5326871  0.4799493    0.00000       Uiso       1.00
       H36          H  0.4369954  0.5016062  0.4237500    0.00000       Uiso       1.00
        F9          F  0.4313649  0.5061401  0.5179177    0.00000       Uiso       1.00
       F10          F  0.5061411  0.4313783  0.4195821    0.00000       Uiso       1.00
       F11          F  0.5804170  0.4820736  0.5686299    0.00000       Uiso       1.00
       F12          F  0.4820845  0.5804108  0.4938595    0.00000       Uiso       1.00
       C74          C  0.8685253  0.4029098  0.2625435    0.00000       Uiso       1.00
       C75          C  0.8703228  0.4263689  0.2752528    0.00000       Uiso       1.00
       C76          C  0.8741655  0.4371370  0.3005579    0.00000       Uiso       1.00
       C77          C  0.8703228  0.3903622  0.2752528    0.00000       Uiso       1.00
       C78          C  0.8742715  0.4009721  0.3005567    0.00000       Uiso       1.00
       C79          C  0.8763213  0.4245446  0.3136654    0.00000       Uiso       1.00
       H37          H  0.8025963  0.6901925  0.5446423    0.00000       Uiso       1.00
       H38          H  0.8024999  0.4641145  0.5448504    0.00000       Uiso       1.00
       H39          H  0.8688363  0.3712383  0.2651622    0.00000       Uiso       1.00
       C80          C  0.8147044  0.7374588  0.5970924    0.00000       Uiso       1.00
       C81          C  0.8021572  0.7247496  0.5736333    0.00000       Uiso       1.00
       C82          C  0.8127676  0.6994455  0.5628883    0.00000       Uiso       1.00
       C83          C  0.8381635  0.7247491  0.6096396    0.00000       Uiso       1.00
       C84          C  0.8489322  0.6994441  0.5989456    0.00000       Uiso       1.00
       C85          C  0.8363402  0.6863368  0.5754020    0.00000       Uiso       1.00
       H40          H  0.8759174  0.4551506  0.3099705    0.00000       Uiso       1.00
       H41          H  0.1019902  0.4553573  0.5363501    0.00000       Uiso       1.00
       H42          H  0.7830333  0.7348404  0.5631135    0.00000       Uiso       1.00
       C86          C  0.8147045  0.4567236  0.5970922    0.00000       Uiso       1.00
       C87          C  0.8381637  0.4585211  0.6096395    0.00000       Uiso       1.00
       C88          C  0.8489085  0.4624709  0.5990298    0.00000       Uiso       1.00
       C89          C  0.8021573  0.4585215  0.5736333    0.00000       Uiso       1.00
       C90          C  0.8128518  0.4623636  0.5628645    0.00000       Uiso       1.00
       C91          C  0.8363953  0.4645201  0.5754572    0.00000       Uiso       1.00
       H43          H  0.1018296  0.3907020  0.5358856    0.00000       Uiso       1.00
       H44          H  0.8754497  0.3908006  0.3098098    0.00000       Uiso       1.00
       H45          H  0.8486834  0.4570343  0.6287634    0.00000       Uiso       1.00
       C92          C  0.1492572  0.4029068  0.5432756    0.00000       Uiso       1.00
       C93          C  0.1365477  0.3903595  0.5414780    0.00000       Uiso       1.00
       C94          C  0.1112424  0.4010542  0.5376363    0.00000       Uiso       1.00
       C95          C  0.1365477  0.4263661  0.5414780    0.00000       Uiso       1.00
       C96          C  0.1112436  0.4371113  0.5375290    0.00000       Uiso       1.00
       C97          C  0.0981350  0.4245980  0.5354800    0.00000       Uiso       1.00
       H46          H  0.8671543  0.4636501  0.6092012    0.00000       Uiso       1.00
       H47          H  0.8669459  0.6900312  0.6092983    0.00000       Uiso       1.00
       C98          C  0.9117977  0.4999995  0.5000018    0.00000       Uiso       1.00
       H48          H  0.1466384  0.4368860  0.5429646    0.00000       Uiso       1.00
       F13          F  0.8683800  0.4401187  0.2620642    0.00000       Uiso       1.00
       F14          F  0.1497365  0.3653639  0.5434210    0.00000       Uiso       1.00
       F15          F  0.7771620  0.4565786  0.5598837    0.00000       Uiso       1.00
       F16          F  0.8519129  0.7379377  0.6346349    0.00000       Uiso       1.00
       C99          C  0.8808579  0.4357809  0.3407910    0.00000       Uiso       1.00
      C100          C  0.8693344  0.4608740  0.3515592    0.00000       Uiso       1.00
      C101          C  0.8736691  0.4713498  0.3769322    0.00000       Uiso       1.00
      C102          C  0.8968481  0.4215069  0.3562310    0.00000       Uiso       1.00
      C103          C  0.9012029  0.4319777  0.3815985    0.00000       Uiso       1.00
      C104          C  0.8896855  0.4570829  0.3923950    0.00000       Uiso       1.00
       H49          H  0.8322666  0.6071325  0.5298641    0.00000       Uiso       1.00
       H50          H  0.8532636  0.4523219  0.5093836    0.00000       Uiso       1.00
       H51          H  0.9064237  0.4022571  0.3487417    0.00000       Uiso       1.00
      C105          C  0.8475773  0.6592112  0.5640495    0.00000       Uiso       1.00
      C106          C  0.8333045  0.6437706  0.5503287    0.00000       Uiso       1.00
      C107          C  0.8437756  0.6184028  0.5397877    0.00000       Uiso       1.00
      C108          C  0.8726700  0.6484437  0.5668495    0.00000       Uiso       1.00
      C109          C  0.8831460  0.6230702  0.5562876    0.00000       Uiso       1.00
      C110          C  0.8688804  0.6076071  0.5425774    0.00000       Uiso       1.00
       H52          H  0.8641440  0.4906231  0.3844123    0.00000       Uiso       1.00
       H53          H  0.0189281  0.4701374  0.4977410    0.00000       Uiso       1.00
       H54          H  0.8140553  0.6512598  0.5481464    0.00000       Uiso       1.00
      C111          C  0.8477480  0.4690566  0.5642208    0.00000       Uiso       1.00
      C112          C  0.8614619  0.4850556  0.5784922    0.00000       Uiso       1.00
      C113          C  0.8720040  0.4894097  0.5680205    0.00000       Uiso       1.00
      C114          C  0.8449571  0.4575236  0.5391303    0.00000       Uiso       1.00
      C115          C  0.8555213  0.4618564  0.5286542    0.00000       Uiso       1.00
      C116          C  0.8692245  0.4778816  0.5429187    0.00000       Uiso       1.00
       H55          H  0.0273924  0.4414621  0.5476767    0.00000       Uiso       1.00
       H56          H  0.9140543  0.4204677  0.3928687    0.00000       Uiso       1.00
       H57          H  0.8636391  0.4946374  0.5977398    0.00000       Uiso       1.00
      C117          C  0.0710095  0.4359514  0.5309440    0.00000       Uiso       1.00
      C118          C  0.0602424  0.4331582  0.5424751    0.00000       Uiso       1.00
      C119          C  0.0348697  0.4437231  0.5381433    0.00000       Uiso       1.00
      C120          C  0.0555688  0.4496687  0.5149480    0.00000       Uiso       1.00
      C121          C  0.0302012  0.4602119  0.5105951    0.00000       Uiso       1.00
      C122          C  0.0194061  0.4574301  0.5221210    0.00000       Uiso       1.00
       H58          H  0.8819252  0.5022675  0.5795257    0.00000       Uiso       1.00
       H59          H  0.9024189  0.6155885  0.5585539    0.00000       Uiso       1.00
       H60          H  0.0630574  0.4518484  0.5053678    0.00000       Uiso       1.00
       F17          F  0.8517829  0.4767057  0.3360130    0.00000       Uiso       1.00
       F18          F  0.0757900  0.4193396  0.5600334    0.00000       Uiso       1.00
       F19          F  0.8311418  0.4399627  0.5233028    0.00000       Uiso       1.00
       F20          F  0.8885004  0.6639906  0.5806739    0.00000       Uiso       1.00
      C123          C  0.8944728  0.4683200  0.4195907    0.00000       Uiso       1.00
      C124          C  0.8962056  0.4919741  0.4325811    0.00000       Uiso       1.00
      C125          C  0.9011658  0.5022843  0.4580406    0.00000       Uiso       1.00
      C126          C  0.8980017  0.4552898  0.4329734    0.00000       Uiso       1.00
      C127          C  0.9029770  0.4655970  0.4584257    0.00000       Uiso       1.00
      C128          C  0.9038303  0.4896842  0.4714849    0.00000       Uiso       1.00
       H61          H  0.8663085  0.5319811  0.4811549    0.00000       Uiso       1.00
       H62          H  0.8674216  0.4916298  0.4799481    0.00000       Uiso       1.00
       H63          H  0.8969402  0.4370022  0.4237464    0.00000       Uiso       1.00
      C129          C  0.8801186  0.5804115  0.5314069    0.00000       Uiso       1.00
      C130          C  0.8670883  0.5670294  0.5085239    0.00000       Uiso       1.00
      C131          C  0.8773946  0.5415761  0.4983544    0.00000       Uiso       1.00
      C132          C  0.9037728  0.5674209  0.5438031    0.00000       Uiso       1.00
      C133          C  0.9140819  0.5419607  0.5336142    0.00000       Uiso       1.00
      C134          C  0.9014814  0.5285164  0.5102355    0.00000       Uiso       1.00
       H64          H  0.9034355  0.5200530  0.4673116    0.00000       Uiso       1.00
       H65          H  0.9437774  0.5188463  0.5053312    0.00000       Uiso       1.00
       H66          H  0.8488002  0.5762599  0.4984057    0.00000       Uiso       1.00
      C135          C  0.8803962  0.4826695  0.5316827    0.00000       Uiso       1.00
      C136          C  0.9032789  0.4862005  0.5447136    0.00000       Uiso       1.00
      C137          C  0.9134470  0.4911780  0.5344065    0.00000       Uiso       1.00
      C138          C  0.8679998  0.4844026  0.5080293    0.00000       Uiso       1.00
      C139          C  0.8781875  0.4893635  0.4977183    0.00000       Uiso       1.00
      C140          C  0.9015660  0.4920300  0.5103185    0.00000       Uiso       1.00
       H67          H  0.9444890  0.4556271  0.5083736    0.00000       Uiso       1.00
       H68          H  0.9064525  0.4545112  0.4680184    0.00000       Uiso       1.00
       H69          H  0.9134010  0.4851383  0.5630008    0.00000       Uiso       1.00
      C141          C  0.9922101  0.4686018  0.5173324    0.00000       Uiso       1.00
      C142          C  0.9792213  0.4562058  0.5156029    0.00000       Uiso       1.00
      C143          C  0.9537610  0.4663918  0.5106397    0.00000       Uiso       1.00
      C144          C  0.9788252  0.4914825  0.5137954    0.00000       Uiso       1.00
      C145          C  0.9533720  0.5016483  0.5088161    0.00000       Uiso       1.00
      C146          C  0.9403144  0.4897680  0.5079678    0.00000       Uiso       1.00
       H70          H  0.9306484  0.4946559  0.5454941    0.00000       Uiso       1.00
       H71          H  0.9318492  0.5326865  0.5443804    0.00000       Uiso       1.00
       H72          H  0.9880495  0.5016052  0.5148530    0.00000       Uiso       1.00
       F21          F  0.8938818  0.5061411  0.4195908    0.00000       Uiso       1.00
       F22          F  0.9922174  0.4313772  0.5179387    0.00000       Uiso       1.00
       F23          F  0.8431683  0.4820744  0.4938640    0.00000       Uiso       1.00
       F24          F  0.9179386  0.5804100  0.5686375    0.00000       Uiso       1.00
      C147          C  0.1492527  0.4029023  0.0088863    0.00000       Uiso       1.00
      C148          C  0.1365431  0.4263614  0.0214336    0.00000       Uiso       1.00
      C149          C  0.1112378  0.4371299  0.0107397    0.00000       Uiso       1.00
      C150          C  0.1365430  0.3903548  0.9854271    0.00000       Uiso       1.00
      C151          C  0.1112390  0.4009650  0.9746822    0.00000       Uiso       1.00
      C152          C  0.0981301  0.4245375  0.9871958    0.00000       Uiso       1.00
       H73          H  0.8671513  0.6901883  0.9481446    0.00000       Uiso       1.00
       H74          H  0.8669456  0.4641127  0.7217645    0.00000       Uiso       1.00
       H75          H  0.1466339  0.3712308  0.9749073    0.00000       Uiso       1.00
      C153          C  0.8147005  0.7374550  0.9550693    0.00000       Uiso       1.00
      C154          C  0.8381599  0.7247456  0.9532717    0.00000       Uiso       1.00
      C155          C  0.8489050  0.6994414  0.9493229    0.00000       Uiso       1.00
      C156          C  0.8021532  0.7247456  0.9532717    0.00000       Uiso       1.00
      C157          C  0.8128474  0.6994404  0.9494293    0.00000       Uiso       1.00
      C158          C  0.8363913  0.6863329  0.9472735    0.00000       Uiso       1.00
       H76          H  0.1018251  0.4551435  0.0210927    0.00000       Uiso       1.00
       H77          H  0.8754432  0.4553526  0.0209950    0.00000       Uiso       1.00
       H78          H  0.8486797  0.7348363  0.9547583    0.00000       Uiso       1.00
      C159          C  0.8147036  0.4567228  0.6743374    0.00000       Uiso       1.00
      C160          C  0.8021562  0.4585203  0.6870468    0.00000       Uiso       1.00
      C161          C  0.8127657  0.4624697  0.7123508    0.00000       Uiso       1.00
      C162          C  0.8381628  0.4585203  0.6870468    0.00000       Uiso       1.00
      C163          C  0.8489313  0.4623620  0.7123517    0.00000       Uiso       1.00
      C164          C  0.8363385  0.4645185  0.7254590    0.00000       Uiso       1.00
       H79          H  0.8759080  0.3906977  0.9566442    0.00000       Uiso       1.00
       H80          H  0.1019860  0.3907939  0.9564361    0.00000       Uiso       1.00
       H81          H  0.7830322  0.4570338  0.6769561    0.00000       Uiso       1.00
      C165          C  0.8685178  0.4029023  0.0088863    0.00000       Uiso       1.00
      C166          C  0.8703153  0.3903548  0.9854271    0.00000       Uiso       1.00
      C167          C  0.8741571  0.4010497  0.9746583    0.00000       Uiso       1.00
      C168          C  0.8703153  0.4263614  0.0214336    0.00000       Uiso       1.00
      C169          C  0.8742644  0.4371067  0.0108237    0.00000       Uiso       1.00
      C170          C  0.8763133  0.4245933  0.9872508    0.00000       Uiso       1.00
       H82          H  0.8025941  0.4636489  0.7216045    0.00000       Uiso       1.00
       H83          H  0.8024945  0.6900277  0.9476776    0.00000       Uiso       1.00
      C171          C  0.9117926  0.4999952  0.9117935    0.00000       Uiso       1.00
       H84          H  0.8688285  0.4368812  0.0405574    0.00000       Uiso       1.00
       F25          F  0.1497317  0.4401108  0.0464288    0.00000       Uiso       1.00
       F26          F  0.8683724  0.3653595  0.9716775    0.00000       Uiso       1.00
       F27          F  0.8519127  0.4565774  0.6738581    0.00000       Uiso       1.00
       F28          F  0.7771576  0.7379344  0.9552147    0.00000       Uiso       1.00
      C172          C  0.0710043  0.4357743  0.9758435    0.00000       Uiso       1.00
      C173          C  0.0602360  0.4608675  0.9786451    0.00000       Uiso       1.00
      C174          C  0.0348627  0.4713437  0.9680829    0.00000       Uiso       1.00
      C175          C  0.0555643  0.4215006  0.9621201    0.00000       Uiso       1.00
      C176          C  0.0301966  0.4319717  0.9515784    0.00000       Uiso       1.00
      C177          C  0.0194000  0.4570771  0.9543699    0.00000       Uiso       1.00
       H85          H  0.8819300  0.6071286  0.9095333    0.00000       Uiso       1.00
       H86          H  0.9024119  0.4523188  0.7962011    0.00000       Uiso       1.00
       H87          H  0.0630537  0.4022507  0.9599350    0.00000       Uiso       1.00
      C178          C  0.8477439  0.6592073  0.9427373    0.00000       Uiso       1.00
      C179          C  0.8614650  0.6437667  0.9267448    0.00000       Uiso       1.00
      C180          C  0.8720061  0.6183988  0.9223890    0.00000       Uiso       1.00
      C181          C  0.8449438  0.6484396  0.9542624    0.00000       Uiso       1.00
      C182          C  0.8555058  0.6230661  0.9499269    0.00000       Uiso       1.00
      C183          C  0.8692163  0.6076031  0.9339083    0.00000       Uiso       1.00
       H88          H  0.0273825  0.4906170  0.9703511    0.00000       Uiso       1.00
       H89          H  0.9140527  0.4701322  0.9913219    0.00000       Uiso       1.00
       H90          H  0.8636475  0.6512560  0.9171672    0.00000       Uiso       1.00
      C184          C  0.8475747  0.4690547  0.7525843    0.00000       Uiso       1.00
      C185          C  0.8333029  0.4850536  0.7680256    0.00000       Uiso       1.00
      C186          C  0.8437744  0.4894073  0.7933932    0.00000       Uiso       1.00
      C187          C  0.8726652  0.4575213  0.7633505    0.00000       Uiso       1.00
      C188          C  0.8831412  0.4618537  0.7887232    0.00000       Uiso       1.00
      C189          C  0.8688764  0.4778789  0.8041871    0.00000       Uiso       1.00
       H91          H  0.8641171  0.4414582  0.9211764    0.00000       Uiso       1.00
       H92          H  0.0189264  0.4204620  0.9416499    0.00000       Uiso       1.00
       H93          H  0.8140551  0.4946357  0.7605373    0.00000       Uiso       1.00
      C190          C  0.8808495  0.4359467  0.9760147    0.00000       Uiso       1.00
      C191          C  0.8693185  0.4331540  0.9509238    0.00000       Uiso       1.00
      C192          C  0.8736504  0.4437190  0.9404477    0.00000       Uiso       1.00
      C193          C  0.8968455  0.4496637  0.9902871    0.00000       Uiso       1.00
      C194          C  0.9011985  0.4602070  0.9798156    0.00000       Uiso       1.00
      C195          C  0.8896728  0.4574255  0.9547132    0.00000       Uiso       1.00
       H94          H  0.8322690  0.5022651  0.8046670    0.00000       Uiso       1.00
       H95          H  0.8532394  0.6155843  0.9594516    0.00000       Uiso       1.00
       H96          H  0.9064260  0.4518435  0.0095355    0.00000       Uiso       1.00
       F29          F  0.0757822  0.4766988  0.9924710    0.00000       Uiso       1.00
       F30          F  0.8517601  0.4193357  0.9350948    0.00000       Uiso       1.00
       F31          F  0.8884931  0.4399603  0.7478017    0.00000       Uiso       1.00
       F32          F  0.8311190  0.6639865  0.9718153    0.00000       Uiso       1.00
      C196          C  0.9922042  0.4683145  0.9431990    0.00000       Uiso       1.00
      C197          C  0.9792135  0.4919687  0.9555955    0.00000       Uiso       1.00
      C198          C  0.9537539  0.5022793  0.9454068    0.00000       Uiso       1.00
      C199          C  0.9788216  0.4552846  0.9203153    0.00000       Uiso       1.00
      C200          C  0.9533693  0.4655922  0.9101459    0.00000       Uiso       1.00
      C201          C  0.9403097  0.4896795  0.9220273    0.00000       Uiso       1.00
       H97          H  0.9306396  0.5319765  0.9171324    0.00000       Uiso       1.00
       H98          H  0.9318469  0.4916257  0.8791015    0.00000       Uiso       1.00
       H99          H  0.9880489  0.4369971  0.9101933    0.00000       Uiso       1.00
      C202          C  0.8803869  0.5804073  0.9291213    0.00000       Uiso       1.00
      C203          C  0.9032703  0.5670251  0.9255917    0.00000       Uiso       1.00
      C204          C  0.9134400  0.5415717  0.9206142    0.00000       Uiso       1.00
      C205          C  0.8679906  0.5674169  0.9273889    0.00000       Uiso       1.00
      C206          C  0.8781797  0.5419567  0.9224267    0.00000       Uiso       1.00
      C207          C  0.9015586  0.5285121  0.9197603    0.00000       Uiso       1.00
      H100          H  0.9444827  0.5200478  0.9561741    0.00000       Uiso       1.00
      H101          H  0.9064627  0.5188416  0.9572902    0.00000       Uiso       1.00
      H102          H  0.9133886  0.5762554  0.9266522    0.00000       Uiso       1.00
      C208          C  0.8801122  0.4826664  0.8313823    0.00000       Uiso       1.00
      C209          C  0.8670811  0.4861974  0.8447651    0.00000       Uiso       1.00
      C210          C  0.8773881  0.4911745  0.8702174    0.00000       Uiso       1.00
      C211          C  0.9037657  0.4843990  0.8443719    0.00000       Uiso       1.00
      C212          C  0.9140766  0.4893596  0.8698312    0.00000       Uiso       1.00
      C213          C  0.9014761  0.4920261  0.8832759    0.00000       Uiso       1.00
      H103          H  0.9034209  0.4556231  0.8917409    0.00000       Uiso       1.00
      H104          H  0.9437765  0.4545068  0.8929433    0.00000       Uiso       1.00
      H105          H  0.8487937  0.4851355  0.8355381    0.00000       Uiso       1.00
      C214          C  0.8944615  0.4685973  0.9434775    0.00000       Uiso       1.00
      C215          C  0.8961912  0.4562016  0.9198223    0.00000       Uiso       1.00
      C216          C  0.9011546  0.4663876  0.9095113    0.00000       Uiso       1.00
      C217          C  0.8979984  0.4914778  0.9565100    0.00000       Uiso       1.00
      C218          C  0.9029779  0.5016437  0.9462020    0.00000       Uiso       1.00
      C219          C  0.9038265  0.4897636  0.9221126    0.00000       Uiso       1.00
      H106          H  0.8663002  0.4946524  0.8798090    0.00000       Uiso       1.00
      H107          H  0.8674135  0.5326825  0.9201538    0.00000       Uiso       1.00
      H108          H  0.8969406  0.5016004  0.9747992    0.00000       Uiso       1.00
       F33          F  0.9922038  0.5061352  0.9804286    0.00000       Uiso       1.00
       F34          F  0.8938557  0.4313732  0.9056543    0.00000       Uiso       1.00
       F35          F  0.9179314  0.4820709  0.8313775    0.00000       Uiso       1.00
       F36          F  0.8431560  0.5804062  0.9297097    0.00000       Uiso       1.00
      C220          C  0.4029023  0.8685180  0.0088864    0.00000       Uiso       1.00
      C221          C  0.4263614  0.8703156  0.0214337    0.00000       Uiso       1.00
      C222          C  0.4371299  0.8741586  0.0107398    0.00000       Uiso       1.00
      C223          C  0.3903547  0.8703156  0.9854271    0.00000       Uiso       1.00
      C224          C  0.4009649  0.8742647  0.9746823    0.00000       Uiso       1.00
      C225          C  0.4245375  0.8763145  0.9871959    0.00000       Uiso       1.00
      H109          H  0.6901882  0.8025922  0.9481446    0.00000       Uiso       1.00
      H110          H  0.4641126  0.8024983  0.7217646    0.00000       Uiso       1.00
      H111          H  0.3712307  0.8688291  0.9749073    0.00000       Uiso       1.00
      C226          C  0.7374550  0.8147008  0.9550695    0.00000       Uiso       1.00
      C227          C  0.7247455  0.8021535  0.9532719    0.00000       Uiso       1.00
      C228          C  0.6994414  0.8127638  0.9493231    0.00000       Uiso       1.00
      C229          C  0.7247455  0.8381602  0.9532719    0.00000       Uiso       1.00
      C230          C  0.6994403  0.8489288  0.9494295    0.00000       Uiso       1.00
      C231          C  0.6863329  0.8363366  0.9472736    0.00000       Uiso       1.00
      H112          H  0.4551435  0.8759105  0.0210928    0.00000       Uiso       1.00
      H113          H  0.4553527  0.1019853  0.0209951    0.00000       Uiso       1.00
      H114          H  0.7348362  0.7830294  0.9547585    0.00000       Uiso       1.00
      C232          C  0.4567227  0.8147040  0.6743374    0.00000       Uiso       1.00
      C233          C  0.4585202  0.8381631  0.6870468    0.00000       Uiso       1.00
      C234          C  0.4624696  0.8489075  0.7123508    0.00000       Uiso       1.00
      C235          C  0.4585202  0.8021564  0.6870468    0.00000       Uiso       1.00
      C236          C  0.4623620  0.8128505  0.7123518    0.00000       Uiso       1.00
      C237          C  0.4645185  0.8363940  0.7254592    0.00000       Uiso       1.00
      H115          H  0.3906976  0.1018251  0.9566442    0.00000       Uiso       1.00
      H116          H  0.3907938  0.8754431  0.9564361    0.00000       Uiso       1.00
      H117          H  0.4570337  0.8486831  0.6769562    0.00000       Uiso       1.00
      C238          C  0.4029024  0.1492525  0.0088863    0.00000       Uiso       1.00
      C239          C  0.3903548  0.1365429  0.9854271    0.00000       Uiso       1.00
      C240          C  0.4010496  0.1112377  0.9746583    0.00000       Uiso       1.00
      C241          C  0.4263615  0.1365429  0.0214336    0.00000       Uiso       1.00
      C242          C  0.4371067  0.1112389  0.0108237    0.00000       Uiso       1.00
      C243          C  0.4245932  0.0981302  0.9872509    0.00000       Uiso       1.00
      H118          H  0.4636489  0.8671534  0.7216046    0.00000       Uiso       1.00
      H119          H  0.6900276  0.8669426  0.9476777    0.00000       Uiso       1.00
      C244          C  0.4999951  0.9117936  0.9117936    0.00000       Uiso       1.00
      H120          H  0.4368812  0.1466334  0.0405575    0.00000       Uiso       1.00
       F37          F  0.4401108  0.8683722  0.0464289    0.00000       Uiso       1.00
       F38          F  0.3653594  0.1497319  0.9716775    0.00000       Uiso       1.00
       F39          F  0.4565774  0.7771611  0.6738582    0.00000       Uiso       1.00
       F40          F  0.7379343  0.8519099  0.9552149    0.00000       Uiso       1.00
      C245          C  0.4357742  0.8808514  0.9758436    0.00000       Uiso       1.00
      C246          C  0.4608674  0.8693281  0.9786452    0.00000       Uiso       1.00
      C247          C  0.4713436  0.8736631  0.9680830    0.00000       Uiso       1.00
      C248          C  0.4215005  0.8968420  0.9621202    0.00000       Uiso       1.00
      C249          C  0.4319716  0.9011971  0.9515785    0.00000       Uiso       1.00
      C250          C  0.4570770  0.8896798  0.9543700    0.00000       Uiso       1.00
      H121          H  0.6071285  0.8322628  0.9095334    0.00000       Uiso       1.00
      H122          H  0.4523188  0.8532608  0.7962012    0.00000       Uiso       1.00
      H123          H  0.4022506  0.9064175  0.9599350    0.00000       Uiso       1.00
      C251          C  0.6592072  0.8475736  0.9427374    0.00000       Uiso       1.00
      C252          C  0.6437666  0.8333008  0.9267449    0.00000       Uiso       1.00
      C253          C  0.6183988  0.8437718  0.9223891    0.00000       Uiso       1.00
      C254          C  0.6484396  0.8726661  0.9542626    0.00000       Uiso       1.00
      C255          C  0.6230661  0.8831422  0.9499270    0.00000       Uiso       1.00
      C256          C  0.6076030  0.8688765  0.9339084    0.00000       Uiso       1.00
      H124          H  0.4906169  0.8641381  0.9703512    0.00000       Uiso       1.00
      H125          H  0.4701322  0.0189229  0.9913219    0.00000       Uiso       1.00
      H126          H  0.6512559  0.8140517  0.9171673    0.00000       Uiso       1.00
      C257          C  0.4690546  0.8477463  0.7525844    0.00000       Uiso       1.00
      C258          C  0.4850536  0.8614601  0.7680257    0.00000       Uiso       1.00
      C259          C  0.4894073  0.8720019  0.7933933    0.00000       Uiso       1.00
      C260          C  0.4575212  0.8449550  0.7633505    0.00000       Uiso       1.00
      C261          C  0.4618536  0.8555189  0.7887232    0.00000       Uiso       1.00
      C262          C  0.4778788  0.8692220  0.8041871    0.00000       Uiso       1.00
      H127          H  0.4414581  0.0273884  0.9211765    0.00000       Uiso       1.00
      H128          H  0.4204619  0.9140488  0.9416500    0.00000       Uiso       1.00
      H129          H  0.4946357  0.8636376  0.7605374    0.00000       Uiso       1.00
      C263          C  0.4359467  0.0710047  0.9760148    0.00000       Uiso       1.00
      C264          C  0.4331539  0.0602380  0.9509238    0.00000       Uiso       1.00
      C265          C  0.4437189  0.0348653  0.9404477    0.00000       Uiso       1.00
      C266          C  0.4496637  0.0555637  0.9902872    0.00000       Uiso       1.00
      C267          C  0.4602070  0.0301962  0.9798157    0.00000       Uiso       1.00
      C268          C  0.4574255  0.0194014  0.9547132    0.00000       Uiso       1.00
      H130          H  0.5022650  0.8819231  0.8046671    0.00000       Uiso       1.00
      H131          H  0.6155842  0.9024149  0.9594517    0.00000       Uiso       1.00
      H132          H  0.4518436  0.0630523  0.0095356    0.00000       Uiso       1.00
       F41          F  0.4766987  0.8517762  0.9924711    0.00000       Uiso       1.00
       F42          F  0.4193356  0.0757860  0.9350948    0.00000       Uiso       1.00
       F43          F  0.4399603  0.8311397  0.7478018    0.00000       Uiso       1.00
       F44          F  0.6639864  0.8884965  0.9718155    0.00000       Uiso       1.00
      C269          C  0.4683144  0.8944676  0.9431990    0.00000       Uiso       1.00
      C270          C  0.4919686  0.8962004  0.9555956    0.00000       Uiso       1.00
      C271          C  0.5022792  0.9011609  0.9454069    0.00000       Uiso       1.00
      C272          C  0.4552845  0.8979968  0.9203153    0.00000       Uiso       1.00
      C273          C  0.4655922  0.9029725  0.9101460    0.00000       Uiso       1.00
      C274          C  0.4896794  0.9038259  0.9220273    0.00000       Uiso       1.00
      H133          H  0.5319765  0.8663042  0.9171325    0.00000       Uiso       1.00
      H134          H  0.4916256  0.8674177  0.8791016    0.00000       Uiso       1.00
      H135          H  0.4369971  0.8969353  0.9101934    0.00000       Uiso       1.00
      C275          C  0.5804073  0.8801147  0.9291215    0.00000       Uiso       1.00
      C276          C  0.5670249  0.8670841  0.9255918    0.00000       Uiso       1.00
      C277          C  0.5415716  0.8773904  0.9206143    0.00000       Uiso       1.00
      C278          C  0.5674168  0.9037691  0.9273890    0.00000       Uiso       1.00
      C279          C  0.5419566  0.9140781  0.9224269    0.00000       Uiso       1.00
      C280          C  0.5285119  0.9014774  0.9197603    0.00000       Uiso       1.00
      H136          H  0.5200477  0.9034306  0.9561742    0.00000       Uiso       1.00
      H137          H  0.5188416  0.9437730  0.9572902    0.00000       Uiso       1.00
      H138          H  0.5762553  0.8487959  0.9266524    0.00000       Uiso       1.00
      C281          C  0.4826663  0.8803934  0.8313824    0.00000       Uiso       1.00
      C282          C  0.4861973  0.9032760  0.8447651    0.00000       Uiso       1.00
      C283          C  0.4911745  0.9134437  0.8702175    0.00000       Uiso       1.00
      C284          C  0.4843990  0.8679965  0.8443720    0.00000       Uiso       1.00
      C285          C  0.4893595  0.8781839  0.8698313    0.00000       Uiso       1.00
      C286          C  0.4920261  0.9015623  0.8832760    0.00000       Uiso       1.00
      H139          H  0.4556231  0.9444852  0.8917410    0.00000       Uiso       1.00
      H140          H  0.4545067  0.9064483  0.8929434    0.00000       Uiso       1.00
      H141          H  0.4851355  0.9133984  0.8355381    0.00000       Uiso       1.00
      C287          C  0.4685972  0.9922059  0.9434775    0.00000       Uiso       1.00
      C288          C  0.4562015  0.9792173  0.9198223    0.00000       Uiso       1.00
      C289          C  0.4663876  0.9537570  0.9095113    0.00000       Uiso       1.00
      C290          C  0.4914778  0.9788208  0.9565101    0.00000       Uiso       1.00
      C291          C  0.5016436  0.9533677  0.9462021    0.00000       Uiso       1.00
      C292          C  0.4897636  0.9403102  0.9221127    0.00000       Uiso       1.00
      H142          H  0.4946524  0.9306451  0.8798091    0.00000       Uiso       1.00
      H143          H  0.5326825  0.9318455  0.9201539    0.00000       Uiso       1.00
      H144          H  0.5016003  0.9880449  0.9747993    0.00000       Uiso       1.00
       F45          F  0.5061351  0.8938762  0.9804287    0.00000       Uiso       1.00
       F46          F  0.4313731  0.9922135  0.9056544    0.00000       Uiso       1.00
       F47          F  0.4820708  0.8431650  0.8313776    0.00000       Uiso       1.00
       F48          F  0.5804061  0.9179351  0.9297098    0.00000       Uiso       1.00
      C293          C  0.4029069  0.1492571  0.5432756    0.00000       Uiso       1.00
      C294          C  0.4263662  0.1365477  0.5414780    0.00000       Uiso       1.00
      C295          C  0.4371346  0.1112423  0.5376350    0.00000       Uiso       1.00
      C296          C  0.3903595  0.1365477  0.5414780    0.00000       Uiso       1.00
      C297          C  0.4009697  0.1112436  0.5375291    0.00000       Uiso       1.00
      C298          C  0.4245423  0.0981348  0.5354791    0.00000       Uiso       1.00
      H145          H  0.6901919  0.8671551  0.6092010    0.00000       Uiso       1.00
      H146          H  0.4641138  0.8669471  0.6092974    0.00000       Uiso       1.00
      H147          H  0.3712354  0.1466384  0.5429646    0.00000       Uiso       1.00
      C299          C  0.7374588  0.8147047  0.5970925    0.00000       Uiso       1.00
      C300          C  0.7247492  0.8381637  0.6096398    0.00000       Uiso       1.00
      C301          C  0.6994451  0.8489090  0.5990296    0.00000       Uiso       1.00
      C302          C  0.7247496  0.8021574  0.5736334    0.00000       Uiso       1.00
      C303          C  0.6994445  0.8128517  0.5628650    0.00000       Uiso       1.00
      C304          C  0.6863368  0.8363955  0.5754571    0.00000       Uiso       1.00
      H148          H  0.4551483  0.1018297  0.5358831    0.00000       Uiso       1.00
      H149          H  0.4553598  0.8754505  0.3098102    0.00000       Uiso       1.00
      H150          H  0.7348397  0.8486835  0.6287636    0.00000       Uiso       1.00
      C305          C  0.4567236  0.8147048  0.5970924    0.00000       Uiso       1.00
      C306          C  0.4585214  0.8021576  0.5736333    0.00000       Uiso       1.00
      C307          C  0.4624712  0.8127676  0.5628887    0.00000       Uiso       1.00
      C308          C  0.4585210  0.8381639  0.6096396    0.00000       Uiso       1.00
      C309          C  0.4623632  0.8489328  0.5989453    0.00000       Uiso       1.00
      C310          C  0.4645201  0.8363404  0.5754020    0.00000       Uiso       1.00
      H151          H  0.3907045  0.8759151  0.3099708    0.00000       Uiso       1.00
      H152          H  0.3907983  0.1019904  0.5363508    0.00000       Uiso       1.00
      H153          H  0.4570350  0.7830336  0.5631135    0.00000       Uiso       1.00
      C311          C  0.4029098  0.8685255  0.2625436    0.00000       Uiso       1.00
      C312          C  0.3903623  0.8703230  0.2752530    0.00000       Uiso       1.00
      C313          C  0.4010568  0.8741645  0.3005581    0.00000       Uiso       1.00
      C314          C  0.4263690  0.8703230  0.2752530    0.00000       Uiso       1.00
      C315          C  0.4371138  0.8742718  0.3005569    0.00000       Uiso       1.00
      C316          C  0.4246004  0.8763206  0.3136653    0.00000       Uiso       1.00
      H154          H  0.4636508  0.8025963  0.5446430    0.00000       Uiso       1.00
      H155          H  0.6900319  0.8024991  0.5448514    0.00000       Uiso       1.00
      C317          C  0.4999996  0.9117973  0.5000012    0.00000       Uiso       1.00
      H156          H  0.4368890  0.8688365  0.2651623    0.00000       Uiso       1.00
       F49          F  0.4401158  0.1497365  0.5434210    0.00000       Uiso       1.00
       F50          F  0.3653669  0.8683801  0.2620643    0.00000       Uiso       1.00
       F51          F  0.4565777  0.8519133  0.6346349    0.00000       Uiso       1.00
       F52          F  0.7379385  0.7771621  0.5598839    0.00000       Uiso       1.00
      C318          C  0.4357790  0.0710089  0.5309424    0.00000       Uiso       1.00
      C319          C  0.4608721  0.0602405  0.5424656    0.00000       Uiso       1.00
      C320          C  0.4713483  0.0348672  0.5381307    0.00000       Uiso       1.00
      C321          C  0.4215053  0.0555690  0.5149522    0.00000       Uiso       1.00
      C322          C  0.4319764  0.0302012  0.5105972    0.00000       Uiso       1.00
      C323          C  0.4570817  0.0194045  0.5221143    0.00000       Uiso       1.00
      H157          H  0.6071320  0.8819337  0.5795311    0.00000       Uiso       1.00
      H158          H  0.4523213  0.9024147  0.5585346    0.00000       Uiso       1.00
      H159          H  0.4022555  0.0630584  0.5053768    0.00000       Uiso       1.00
      C324          C  0.6592112  0.8477481  0.5642202    0.00000       Uiso       1.00
      C325          C  0.6437703  0.8614690  0.5784931    0.00000       Uiso       1.00
      C326          C  0.6184025  0.8720102  0.5680222    0.00000       Uiso       1.00
      C327          C  0.6484440  0.8449484  0.5391278    0.00000       Uiso       1.00
      C328          C  0.6230705  0.8555106  0.5286520    0.00000       Uiso       1.00
      C329          C  0.6076072  0.8692207  0.5429176    0.00000       Uiso       1.00
      H160          H  0.4906215  0.0273869  0.5476556    0.00000       Uiso       1.00
      H161          H  0.4701385  0.9140592  0.3928718    0.00000       Uiso       1.00
      H162          H  0.6512594  0.8636511  0.5977421    0.00000       Uiso       1.00
      C330          C  0.4690567  0.8475769  0.5640495    0.00000       Uiso       1.00
      C331          C  0.4850559  0.8333054  0.5503356    0.00000       Uiso       1.00
      C332          C  0.4894100  0.8437774  0.5397938    0.00000       Uiso       1.00
      C333          C  0.4575234  0.8726676  0.5668406    0.00000       Uiso       1.00
      C334          C  0.4618561  0.8831440  0.5562766    0.00000       Uiso       1.00
      C335          C  0.4778816  0.8688794  0.5425735    0.00000       Uiso       1.00
      H163          H  0.4414639  0.8641231  0.3844070    0.00000       Uiso       1.00
      H164          H  0.4204667  0.0189310  0.4977457    0.00000       Uiso       1.00
      H165          H  0.4946380  0.8140577  0.5481583    0.00000       Uiso       1.00
      C336          C  0.4359534  0.8808564  0.3407906    0.00000       Uiso       1.00
      C337          C  0.4331603  0.8693251  0.3515575    0.00000       Uiso       1.00
      C338          C  0.4437249  0.8736566  0.3769300    0.00000       Uiso       1.00
      C339          C  0.4496704  0.8968524  0.3562313    0.00000       Uiso       1.00
      C340          C  0.4602133  0.9012051  0.3815987    0.00000       Uiso       1.00
      C341          C  0.4574315  0.8896790  0.3923936    0.00000       Uiso       1.00
      H166          H  0.5022680  0.8322722  0.5298725    0.00000       Uiso       1.00
      H167          H  0.6155890  0.8532444  0.5093793    0.00000       Uiso       1.00
      H168          H  0.4518501  0.9064328  0.3487429    0.00000       Uiso       1.00
       F53          F  0.4767034  0.0757867  0.5600171    0.00000       Uiso       1.00
       F54          F  0.4193420  0.8517667  0.3360098    0.00000       Uiso       1.00
       F55          F  0.4399621  0.8884952  0.5806561    0.00000       Uiso       1.00
       F56          F  0.6639913  0.8311240  0.5232974    0.00000       Uiso       1.00
      C342          C  0.4683189  0.9922090  0.5173267    0.00000       Uiso       1.00
      C343          C  0.4919733  0.9792184  0.5155939    0.00000       Uiso       1.00
      C344          C  0.5022839  0.9537588  0.5106335    0.00000       Uiso       1.00
      C345          C  0.4552889  0.9788262  0.5137978    0.00000       Uiso       1.00
      C346          C  0.4655964  0.9533738  0.5088222    0.00000       Uiso       1.00
      C347          C  0.4896839  0.9403144  0.5079687    0.00000       Uiso       1.00
      H169          H  0.5319804  0.9306438  0.5454901    0.00000       Uiso       1.00
      H170          H  0.4916292  0.9318507  0.5443770    0.00000       Uiso       1.00
      H171          H  0.4370013  0.9880533  0.5148593    0.00000       Uiso       1.00
      C348          C  0.5804115  0.8803914  0.5316796    0.00000       Uiso       1.00
      C349          C  0.5670291  0.9032746  0.5447101    0.00000       Uiso       1.00
      C350          C  0.5415757  0.9134443  0.5344040    0.00000       Uiso       1.00
      C351          C  0.5674213  0.8679954  0.5080255    0.00000       Uiso       1.00
      C352          C  0.5419611  0.8781845  0.4977166    0.00000       Uiso       1.00
      C353          C  0.5285164  0.9015632  0.5103172    0.00000       Uiso       1.00
      H172          H  0.5200526  0.9444877  0.5083636    0.00000       Uiso       1.00
      H173          H  0.5188468  0.9064681  0.4680217    0.00000       Uiso       1.00
      H174          H  0.5762592  0.9133928  0.5629981    0.00000       Uiso       1.00
      C354          C  0.4826695  0.8801157  0.5314019    0.00000       Uiso       1.00
      C355          C  0.4862009  0.8670849  0.5085195    0.00000       Uiso       1.00
      C356          C  0.4911784  0.8773923  0.4983515    0.00000       Uiso       1.00
      C357          C  0.4844022  0.9037692  0.5437986    0.00000       Uiso       1.00
      C358          C  0.4893631  0.9140804  0.5336111    0.00000       Uiso       1.00
      C359          C  0.4920300  0.9014803  0.5102327    0.00000       Uiso       1.00
      H175          H  0.4556276  0.9034257  0.4673101    0.00000       Uiso       1.00
      H176          H  0.4545108  0.9437810  0.5053466    0.00000       Uiso       1.00
      H177          H  0.4851390  0.8487976  0.4983972    0.00000       Uiso       1.00
      C360          C  0.4686028  0.8944674  0.4195894    0.00000       Uiso       1.00
      C361          C  0.4562067  0.8961967  0.4325782    0.00000       Uiso       1.00
      C362          C  0.4663924  0.9011596  0.4580382    0.00000       Uiso       1.00
      C363          C  0.4914834  0.8980042  0.4329742    0.00000       Uiso       1.00
      C364          C  0.5016488  0.9029833  0.4584272    0.00000       Uiso       1.00
      C365          C  0.4897684  0.9038315  0.4714848    0.00000       Uiso       1.00
      H178          H  0.4946566  0.8663046  0.4811502    0.00000       Uiso       1.00
      H179          H  0.5326872  0.8674184  0.4799494    0.00000       Uiso       1.00
      H180          H  0.5016062  0.8969467  0.4237501    0.00000       Uiso       1.00
       F57          F  0.5061401  0.9922090  0.5179178    0.00000       Uiso       1.00
       F58          F  0.4313783  0.8938611  0.4195821    0.00000       Uiso       1.00
       F59          F  0.4820736  0.9179344  0.5686299    0.00000       Uiso       1.00
       F60          F  0.5804109  0.8431609  0.4938596    0.00000       Uiso       1.00
      C366          C  0.8685178  0.1492526  0.0088864    0.00000       Uiso       1.00
      C367          C  0.8703152  0.1365430  0.0214337    0.00000       Uiso       1.00
      C368          C  0.8741583  0.1112377  0.0107398    0.00000       Uiso       1.00
      C369          C  0.8703151  0.1365430  0.9854271    0.00000       Uiso       1.00
      C370          C  0.8742643  0.1112390  0.9746823    0.00000       Uiso       1.00
      C371          C  0.8763141  0.0981301  0.9871959    0.00000       Uiso       1.00
      H181          H  0.8025917  0.8671515  0.9481446    0.00000       Uiso       1.00
      H182          H  0.8024979  0.8669458  0.7217646    0.00000       Uiso       1.00
      H183          H  0.8688287  0.1466339  0.9749073    0.00000       Uiso       1.00
      C372          C  0.8147004  0.8147008  0.9550695    0.00000       Uiso       1.00
      C373          C  0.8021530  0.8381602  0.9532719    0.00000       Uiso       1.00
      C374          C  0.8127633  0.8489053  0.9493231    0.00000       Uiso       1.00
      C375          C  0.8381597  0.8021535  0.9532719    0.00000       Uiso       1.00
      C376          C  0.8489283  0.8128477  0.9494295    0.00000       Uiso       1.00
      C377          C  0.8363361  0.8363916  0.9472736    0.00000       Uiso       1.00
      H184          H  0.8759102  0.1018250  0.0210928    0.00000       Uiso       1.00
      H185          H  0.1019853  0.8754434  0.0209951    0.00000       Uiso       1.00
      H186          H  0.7830289  0.8486800  0.9547585    0.00000       Uiso       1.00
      C378          C  0.8147036  0.8147039  0.6743374    0.00000       Uiso       1.00
      C379          C  0.8381627  0.8021564  0.6870468    0.00000       Uiso       1.00
      C380          C  0.8489071  0.8127661  0.7123509    0.00000       Uiso       1.00
      C381          C  0.8021560  0.8381631  0.6870468    0.00000       Uiso       1.00
      C382          C  0.8128502  0.8489316  0.7123518    0.00000       Uiso       1.00
      C383          C  0.8363935  0.8363388  0.7254592    0.00000       Uiso       1.00
      H187          H  0.1018249  0.8759083  0.9566442    0.00000       Uiso       1.00
      H188          H  0.8754427  0.1019860  0.9564361    0.00000       Uiso       1.00
      H189          H  0.8486827  0.7830324  0.6769562    0.00000       Uiso       1.00
      C384          C  0.1492525  0.8685180  0.0088864    0.00000       Uiso       1.00
      C385          C  0.1365428  0.8703156  0.9854271    0.00000       Uiso       1.00
      C386          C  0.1112376  0.8741574  0.9746584    0.00000       Uiso       1.00
      C387          C  0.1365428  0.8703156  0.0214337    0.00000       Uiso       1.00
      C388          C  0.1112388  0.8742647  0.0108237    0.00000       Uiso       1.00
      C389          C  0.0981301  0.8763136  0.9872509    0.00000       Uiso       1.00
      H190          H  0.8671530  0.8025944  0.7216046    0.00000       Uiso       1.00
      H191          H  0.8669422  0.8024948  0.9476777    0.00000       Uiso       1.00
      C390          C  0.9117932  0.9117929  0.9117936    0.00000       Uiso       1.00
      H192          H  0.1466334  0.8688287  0.0405575    0.00000       Uiso       1.00
       F61          F  0.8683719  0.1497315  0.0464289    0.00000       Uiso       1.00
       F62          F  0.1497318  0.8683727  0.9716776    0.00000       Uiso       1.00
       F63          F  0.7771606  0.8519129  0.6738582    0.00000       Uiso       1.00
       F64          F  0.8519093  0.7771580  0.9552149    0.00000       Uiso       1.00
      C391          C  0.8808510  0.0710043  0.9758436    0.00000       Uiso       1.00
      C392          C  0.8693277  0.0602360  0.9786452    0.00000       Uiso       1.00
      C393          C  0.8736627  0.0348627  0.9680829    0.00000       Uiso       1.00
      C394          C  0.8968415  0.0555643  0.9621201    0.00000       Uiso       1.00
      C395          C  0.9011967  0.0301966  0.9515785    0.00000       Uiso       1.00
      C396          C  0.8896793  0.0194000  0.9543699    0.00000       Uiso       1.00
      H193          H  0.8322624  0.8819303  0.9095334    0.00000       Uiso       1.00
      H194          H  0.8532604  0.9024122  0.7962012    0.00000       Uiso       1.00
      H195          H  0.9064170  0.0630537  0.9599350    0.00000       Uiso       1.00
      C397          C  0.8475731  0.8477441  0.9427374    0.00000       Uiso       1.00
      C398          C  0.8333003  0.8614654  0.9267449    0.00000       Uiso       1.00
      C399          C  0.8437713  0.8720064  0.9223891    0.00000       Uiso       1.00
      C400          C  0.8726657  0.8449441  0.9542626    0.00000       Uiso       1.00
      C401          C  0.8831416  0.8555061  0.9499270    0.00000       Uiso       1.00
      C402          C  0.8688760  0.8692166  0.9339084    0.00000       Uiso       1.00
      H196          H  0.8641377  0.0273825  0.9703511    0.00000       Uiso       1.00
      H197          H  0.0189227  0.9140530  0.9913220    0.00000       Uiso       1.00
      H198          H  0.8140512  0.8636478  0.9171673    0.00000       Uiso       1.00
      C403          C  0.8477459  0.8475750  0.7525845    0.00000       Uiso       1.00
      C404          C  0.8614597  0.8333032  0.7680257    0.00000       Uiso       1.00
      C405          C  0.8720015  0.8437747  0.7933933    0.00000       Uiso       1.00
      C406          C  0.8449546  0.8726655  0.7633505    0.00000       Uiso       1.00
      C407          C  0.8555185  0.8831415  0.7887232    0.00000       Uiso       1.00
      C408          C  0.8692216  0.8688767  0.8041871    0.00000       Uiso       1.00
      H199          H  0.0273883  0.8641175  0.9211766    0.00000       Uiso       1.00
      H200          H  0.9140484  0.0189264  0.9416500    0.00000       Uiso       1.00
      H201          H  0.8636371  0.8140555  0.7605374    0.00000       Uiso       1.00
      C409          C  0.0710046  0.8808497  0.9760148    0.00000       Uiso       1.00
      C410          C  0.0602379  0.8693187  0.9509239    0.00000       Uiso       1.00
      C411          C  0.0348652  0.8736507  0.9404479    0.00000       Uiso       1.00
      C412          C  0.0555636  0.8968459  0.9902872    0.00000       Uiso       1.00
      C413          C  0.0301960  0.9011988  0.9798157    0.00000       Uiso       1.00
      C414          C  0.0194013  0.8896732  0.9547133    0.00000       Uiso       1.00
      H202          H  0.8819227  0.8322693  0.8046671    0.00000       Uiso       1.00
      H203          H  0.9024144  0.8532397  0.9594517    0.00000       Uiso       1.00
      H204          H  0.0630523  0.9064262  0.0095356    0.00000       Uiso       1.00
       F65          F  0.8517758  0.0757821  0.9924711    0.00000       Uiso       1.00
       F66          F  0.0757859  0.8517604  0.9350949    0.00000       Uiso       1.00
       F67          F  0.8311393  0.8884934  0.7478018    0.00000       Uiso       1.00
       F68          F  0.8884961  0.8311193  0.9718155    0.00000       Uiso       1.00
      C415          C  0.8944671  0.9922045  0.9431990    0.00000       Uiso       1.00
      C416          C  0.8961998  0.9792138  0.9555956    0.00000       Uiso       1.00
      C417          C  0.9011604  0.9537542  0.9454069    0.00000       Uiso       1.00
      C418          C  0.8979964  0.9788219  0.9203153    0.00000       Uiso       1.00
      C419          C  0.9029720  0.9533696  0.9101460    0.00000       Uiso       1.00
      C420          C  0.9038254  0.9403101  0.9220273    0.00000       Uiso       1.00
      H205          H  0.8663037  0.9306399  0.9171325    0.00000       Uiso       1.00
      H206          H  0.8674172  0.9318472  0.8791016    0.00000       Uiso       1.00
      H207          H  0.8969349  0.9880491  0.9101934    0.00000       Uiso       1.00
      C421          C  0.8801143  0.8803873  0.9291215    0.00000       Uiso       1.00
      C422          C  0.8670837  0.9032706  0.9255918    0.00000       Uiso       1.00
      C423          C  0.8773899  0.9134402  0.9206143    0.00000       Uiso       1.00
      C424          C  0.9037686  0.8679910  0.9273890    0.00000       Uiso       1.00
      C425          C  0.9140776  0.8781801  0.9224269    0.00000       Uiso       1.00
      C426          C  0.9014769  0.9015590  0.9197603    0.00000       Uiso       1.00
      H208          H  0.9034302  0.9444830  0.9561742    0.00000       Uiso       1.00
      H209          H  0.9437725  0.9064630  0.9572904    0.00000       Uiso       1.00
      H210          H  0.8487955  0.9133889  0.9266524    0.00000       Uiso       1.00
      C427          C  0.8803929  0.8801125  0.8313824    0.00000       Uiso       1.00
      C428          C  0.9032755  0.8670814  0.8447651    0.00000       Uiso       1.00
      C429          C  0.9134433  0.8773884  0.8702175    0.00000       Uiso       1.00
      C430          C  0.8679960  0.9037660  0.8443720    0.00000       Uiso       1.00
      C431          C  0.8781834  0.9140769  0.8698313    0.00000       Uiso       1.00
      C432          C  0.9015618  0.9014764  0.8832760    0.00000       Uiso       1.00
      H211          H  0.9444848  0.9034213  0.8917410    0.00000       Uiso       1.00
      H212          H  0.9064478  0.9437768  0.8929434    0.00000       Uiso       1.00
      H213          H  0.9133979  0.8487941  0.8355381    0.00000       Uiso       1.00
      C433          C  0.9922054  0.8944618  0.9434775    0.00000       Uiso       1.00
      C434          C  0.9792168  0.8961915  0.9198223    0.00000       Uiso       1.00
      C435          C  0.9537566  0.9011549  0.9095113    0.00000       Uiso       1.00
      C436          C  0.9788203  0.8979987  0.9565101    0.00000       Uiso       1.00
      C437          C  0.9533672  0.9029782  0.9462021    0.00000       Uiso       1.00
      C438          C  0.9403098  0.9038268  0.9221127    0.00000       Uiso       1.00
      H214          H  0.9306446  0.8663004  0.8798091    0.00000       Uiso       1.00
      H215          H  0.9318451  0.8674138  0.9201539    0.00000       Uiso       1.00
      H216          H  0.9880444  0.8969409  0.9747993    0.00000       Uiso       1.00
       F69          F  0.8938757  0.9922041  0.9804286    0.00000       Uiso       1.00
       F70          F  0.9922131  0.8938560  0.9056544    0.00000       Uiso       1.00
       F71          F  0.8431645  0.9179316  0.8313776    0.00000       Uiso       1.00
       F72          F  0.9179347  0.8431563  0.9297099    0.00000       Uiso       1.00
        O1          O  0.8147049  0.4552332  0.6349707    0.00000       Uiso       1.00
        B1          B  0.8015826  0.4555483  0.6102145    0.00000       Uiso       1.00
        B2          B  0.7648775  0.4555483  0.6102145    0.00000       Uiso       1.00
        O2          O  0.7768263  0.4552337  0.5970921    0.00000       Uiso       1.00
        O3          O  0.7768255  0.4552332  0.6349705    0.00000       Uiso       1.00
        B3          B  0.8015818  0.4555479  0.6469189    0.00000       Uiso       1.00
        O4          O  0.4552332  0.8147051  0.6349699    0.00000       Uiso       1.00
        B4          B  0.4555479  0.8015826  0.6469185    0.00000       Uiso       1.00
        B5          B  0.4555483  0.7648777  0.6102137    0.00000       Uiso       1.00
        O5          O  0.4552333  0.7768261  0.6349700    0.00000       Uiso       1.00
        O6          O  0.4552336  0.7768263  0.5970910    0.00000       Uiso       1.00
        B6          B  0.4555482  0.8015825  0.6102137    0.00000       Uiso       1.00
      C439          C  0.3831234  0.3629338  0.5477528    0.00000       Uiso       1.00
      C440          C  0.3842258  0.3421012  0.5490082    0.00000       Uiso       1.00
      C441          C  0.4059935  0.3221062  0.5514482    0.00000       Uiso       1.00
      C442          C  0.4064290  0.3009189  0.5514372    0.00000       Uiso       1.00
      C443          C  0.3847482  0.2986965  0.5475954    0.00000       Uiso       1.00
      C444          C  0.3629324  0.3189401  0.5448027    0.00000       Uiso       1.00
      C445          C  0.3625985  0.3412844  0.5472045    0.00000       Uiso       1.00
        O7          O  0.4023121  0.3662767  0.5482790    0.00000       Uiso       1.00
      H217          H  0.4227061  0.3229970  0.5533875    0.00000       Uiso       1.00
      H218          H  0.4238597  0.2863368  0.5541964    0.00000       Uiso       1.00
      H219          H  0.3457716  0.3168393  0.5391756    0.00000       Uiso       1.00
      C446          C  0.2135235  0.3831270  0.5478173    0.00000       Uiso       1.00
      C447          C  0.2345156  0.3842321  0.5490873    0.00000       Uiso       1.00
      C448          C  0.2351833  0.4059949  0.5515150    0.00000       Uiso       1.00
      C449          C  0.2559242  0.4064240  0.5514970    0.00000       Uiso       1.00
      C450          C  0.2759829  0.3847410  0.5476537    0.00000       Uiso       1.00
      C451          C  0.2747642  0.3629332  0.5448853    0.00000       Uiso       1.00
      C452          C  0.2551571  0.3626075  0.5472972    0.00000       Uiso       1.00
        O8          O  0.1915087  0.4023095  0.5483103    0.00000       Uiso       1.00
      H220          H  0.2195174  0.4227063  0.5534384    0.00000       Uiso       1.00
      H221          H  0.2558306  0.4238518  0.5542440    0.00000       Uiso       1.00
      H222          H  0.2883911  0.3457679  0.5392600    0.00000       Uiso       1.00
      C453          C  0.3629638  0.2135105  0.5477951    0.00000       Uiso       1.00
      C454          C  0.3421468  0.2345062  0.5490840    0.00000       Uiso       1.00
      C455          C  0.3221631  0.2351774  0.5515459    0.00000       Uiso       1.00
      C456          C  0.3009816  0.2559265  0.5515583    0.00000       Uiso       1.00
      C457          C  0.2987564  0.2759910  0.5477185    0.00000       Uiso       1.00
      C458          C  0.3189973  0.2747702  0.5449170    0.00000       Uiso       1.00
      C459          C  0.3413333  0.2551478  0.5472875    0.00000       Uiso       1.00
        O9          O  0.3662995  0.1915066  0.5483171    0.00000       Uiso       1.00
      H223          H  0.3230582  0.2195026  0.5534719    0.00000       Uiso       1.00
      H224          H  0.2864029  0.2558364  0.5543233    0.00000       Uiso       1.00
      H225          H  0.3168985  0.2884102  0.5392987    0.00000       Uiso       1.00
      C460          C  0.3822227  0.2125132  0.5446206    0.00000       Uiso       1.00
      C461          C  0.3826830  0.2329221  0.5440390    0.00000       Uiso       1.00
      C462          C  0.4026827  0.2319953  0.5413811    0.00000       Uiso       1.00
      C463          C  0.4032038  0.2528937  0.5417732    0.00000       Uiso       1.00
      C464          C  0.3843471  0.2756108  0.5462484    0.00000       Uiso       1.00
      C465          C  0.3646342  0.2762454  0.5494333    0.00000       Uiso       1.00
      C466          C  0.3625345  0.2549335  0.5465844    0.00000       Uiso       1.00
       O10          O  0.4005770  0.1897807  0.5428109    0.00000       Uiso       1.00
      H226          H  0.4178958  0.2149367  0.5389023    0.00000       Uiso       1.00
      H227          H  0.4186190  0.2509815  0.5387388    0.00000       Uiso       1.00
      H228          H  0.3515131  0.2936468  0.5555819    0.00000       Uiso       1.00
      C467          C  0.2125409  0.3616990  0.5446847    0.00000       Uiso       1.00
      C468          C  0.2329584  0.3402556  0.5441259    0.00000       Uiso       1.00
      C469          C  0.2320521  0.3185359  0.5415207    0.00000       Uiso       1.00
      C470          C  0.2529575  0.2975171  0.5419291    0.00000       Uiso       1.00
      C471          C  0.2756640  0.2981259  0.5463632    0.00000       Uiso       1.00
      C472          C  0.2762774  0.3203800  0.5494989    0.00000       Uiso       1.00
      C473          C  0.2549578  0.3409323  0.5466378    0.00000       Uiso       1.00
       O11          O  0.1898118  0.3642682  0.5428824    0.00000       Uiso       1.00
      H229          H  0.2150002  0.3179009  0.5390593    0.00000       Uiso       1.00
      H230          H  0.2510534  0.2809892  0.5389313    0.00000       Uiso       1.00
      H231          H  0.2936687  0.3222600  0.5556297    0.00000       Uiso       1.00
      C474          C  0.3616921  0.3822097  0.5446178    0.00000       Uiso       1.00
      C475          C  0.3402474  0.3826665  0.5440427    0.00000       Uiso       1.00
      C476          C  0.3185325  0.4026904  0.5414447    0.00000       Uiso       1.00
      C477          C  0.2975132  0.4032174  0.5418565    0.00000       Uiso       1.00
      C478          C  0.2981154  0.3843294  0.5462779    0.00000       Uiso       1.00
      C479          C  0.3203653  0.3645861  0.5493962    0.00000       Uiso       1.00
      C480          C  0.3409204  0.3624958  0.5465409    0.00000       Uiso       1.00
       O12          O  0.3642628  0.4005826  0.5428423    0.00000       Uiso       1.00
      H232          H  0.3179069  0.4179177  0.5389929    0.00000       Uiso       1.00
      H233          H  0.2809924  0.4186622  0.5388746    0.00000       Uiso       1.00
      H234          H  0.3222410  0.3514361  0.5555146    0.00000       Uiso       1.00
        B7          B  0.3901195  0.3902524  0.5451548    0.00000       Uiso       1.00
        B8          B  0.1765925  0.3901194  0.5451733    0.00000       Uiso       1.00
        B9          B  0.3902547  0.1765795  0.5451504    0.00000       Uiso       1.00
      C481          C  0.3629376  0.3831271  0.1983106    0.00000       Uiso       1.00
      C482          C  0.3421052  0.3842297  0.1773252    0.00000       Uiso       1.00
      C483          C  0.3221103  0.4059974  0.1766580    0.00000       Uiso       1.00
      C484          C  0.3009232  0.4064331  0.1559173    0.00000       Uiso       1.00
      C485          C  0.2987010  0.3847525  0.1358561    0.00000       Uiso       1.00
      C486          C  0.3189445  0.3629366  0.1370765    0.00000       Uiso       1.00
      C487          C  0.3412887  0.3626025  0.1566850    0.00000       Uiso       1.00
       O13          O  0.3662803  0.4023156  0.2203158    0.00000       Uiso       1.00
      H235          H  0.3230010  0.4227099  0.1923220    0.00000       Uiso       1.00
      H236          H  0.2863411  0.4238639  0.1560068    0.00000       Uiso       1.00
      H237          H  0.3168438  0.3457759  0.1234421    0.00000       Uiso       1.00
      C488          C  0.3831324  0.2135288  0.0488410    0.00000       Uiso       1.00
      C489          C  0.3842373  0.2345206  0.0696680    0.00000       Uiso       1.00
      C490          C  0.4059999  0.2351882  0.0896705    0.00000       Uiso       1.00
      C491          C  0.4064287  0.2559288  0.1108583    0.00000       Uiso       1.00
      C492          C  0.3847458  0.2759874  0.1130773    0.00000       Uiso       1.00
      C493          C  0.3629382  0.2747690  0.0928195    0.00000       Uiso       1.00
      C494          C  0.3626127  0.2551621  0.0704750    0.00000       Uiso       1.00
       O14          O  0.4023149  0.1915140  0.0455157    0.00000       Uiso       1.00
      H238          H  0.4227113  0.2195223  0.0887928    0.00000       Uiso       1.00
      H239          H  0.4238565  0.2558351  0.1254455    0.00000       Uiso       1.00
      H240          H  0.3457727  0.2883957  0.0949062    0.00000       Uiso       1.00
      C495          C  0.2135161  0.3629692  0.0286872    0.00000       Uiso       1.00
      C496          C  0.2345118  0.3421522  0.0275770    0.00000       Uiso       1.00
      C497          C  0.2351833  0.3221688  0.0058029    0.00000       Uiso       1.00
      C498          C  0.2559324  0.3009873  0.0053581    0.00000       Uiso       1.00
      C499          C  0.2759966  0.2987619  0.0270369    0.00000       Uiso       1.00
      C500          C  0.2747755  0.3190025  0.0488582    0.00000       Uiso       1.00
      C501          C  0.2551532  0.3413385  0.0492014    0.00000       Uiso       1.00
       O15          O  0.1915124  0.3663051  0.0094973    0.00000       Uiso       1.00
      H241          H  0.2195082  0.3230638  0.9890971    0.00000       Uiso       1.00
      H242          H  0.2558420  0.2864085  0.9879243    0.00000       Uiso       1.00
      H243          H  0.2884153  0.3169034  0.0660175    0.00000       Uiso       1.00
      C502          C  0.2125186  0.3822278  0.0501230    0.00000       Uiso       1.00
      C503          C  0.2329272  0.3826880  0.0715737    0.00000       Uiso       1.00
      C504          C  0.2320001  0.4026873  0.0933040    0.00000       Uiso       1.00
      C505          C  0.2528984  0.4032082  0.1143313    0.00000       Uiso       1.00
      C506          C  0.2756155  0.3843516  0.1137165    0.00000       Uiso       1.00
      C507          C  0.2762504  0.3646390  0.0914537    0.00000       Uiso       1.00
      C508          C  0.2549386  0.3625394  0.0708911    0.00000       Uiso       1.00
       O16          O  0.1897860  0.4005822  0.0475545    0.00000       Uiso       1.00
      H244          H  0.2149415  0.4179004  0.0939373    0.00000       Uiso       1.00
      H245          H  0.2509859  0.4186232  0.1308684    0.00000       Uiso       1.00
      H246          H  0.2936519  0.3515180  0.0895855    0.00000       Uiso       1.00
      C509          C  0.3617046  0.2125463  0.0295632    0.00000       Uiso       1.00
      C510          C  0.3402612  0.2329638  0.0290961    0.00000       Uiso       1.00
      C511          C  0.3185417  0.2320577  0.0090756    0.00000       Uiso       1.00
      C512          C  0.2975229  0.2529631  0.0085537    0.00000       Uiso       1.00
      C513          C  0.2981315  0.2756695  0.0274348    0.00000       Uiso       1.00
      C514          C  0.3203854  0.2762827  0.0471663    0.00000       Uiso       1.00
      C515          C  0.3409378  0.2549630  0.0492602    0.00000       Uiso       1.00
       O17          O  0.3642740  0.1898173  0.0112057    0.00000       Uiso       1.00
      H247          H  0.3179063  0.2150055  0.9938498    0.00000       Uiso       1.00
      H248          H  0.2809947  0.2510588  0.9931193    0.00000       Uiso       1.00
      H249          H  0.3222654  0.2936739  0.0603069    0.00000       Uiso       1.00
      C516          C  0.3822135  0.3616957  0.1992902    0.00000       Uiso       1.00
      C517          C  0.3826705  0.3402512  0.1788775    0.00000       Uiso       1.00
      C518          C  0.4026943  0.3185363  0.1797845    0.00000       Uiso       1.00
      C519          C  0.4032215  0.2975172  0.1588806    0.00000       Uiso       1.00
      C520          C  0.3843339  0.2981197  0.1361737    0.00000       Uiso       1.00
      C521          C  0.3645906  0.3203696  0.1355620    0.00000       Uiso       1.00
      C522          C  0.3625001  0.3409244  0.1568820    0.00000       Uiso       1.00
       O18          O  0.4005862  0.3642662  0.2220091    0.00000       Uiso       1.00
      H250          H  0.4179214  0.3179105  0.1968378    0.00000       Uiso       1.00
      H251          H  0.4186663  0.2809964  0.1607866    0.00000       Uiso       1.00
      H252          H  0.3514409  0.3222455  0.1181696    0.00000       Uiso       1.00
       B10          B  0.3902558  0.3901227  0.2352229    0.00000       Uiso       1.00
       B11          B  0.3901251  0.1765980  0.0215466    0.00000       Uiso       1.00
       B12          B  0.1765852  0.3902602  0.0216919    0.00000       Uiso       1.00
       O19          O  0.7768260  0.8147051  0.6349707    0.00000       Uiso       1.00
       B13          B  0.7648775  0.8015829  0.6102146    0.00000       Uiso       1.00
       B14          B  0.8015827  0.7648777  0.6102146    0.00000       Uiso       1.00
       O20          O  0.7768263  0.7768266  0.5970922    0.00000       Uiso       1.00
       O21          O  0.8147053  0.7768258  0.6349707    0.00000       Uiso       1.00
       B15          B  0.8015823  0.8015820  0.6469190    0.00000       Uiso       1.00
      C523          C  0.8640488  0.3629374  0.1983105    0.00000       Uiso       1.00
      C524          C  0.8627936  0.3421050  0.1773251    0.00000       Uiso       1.00
      C525          C  0.8603536  0.3221101  0.1766580    0.00000       Uiso       1.00
      C526          C  0.8603648  0.3009230  0.1559172    0.00000       Uiso       1.00
      C527          C  0.8642068  0.2987008  0.1358560    0.00000       Uiso       1.00
      C528          C  0.8669995  0.3189443  0.1370764    0.00000       Uiso       1.00
      C529          C  0.8645976  0.3412884  0.1566849    0.00000       Uiso       1.00
       O22          O  0.8635223  0.3662801  0.2203157    0.00000       Uiso       1.00
      H253          H  0.8584141  0.3230008  0.1923219    0.00000       Uiso       1.00
      H254          H  0.8576056  0.2863409  0.1560068    0.00000       Uiso       1.00
      H255          H  0.8726268  0.3168437  0.1234420    0.00000       Uiso       1.00
      C530          C  0.8639858  0.3831322  0.0488409    0.00000       Uiso       1.00
      C531          C  0.8627156  0.3842371  0.0696679    0.00000       Uiso       1.00
      C532          C  0.8602876  0.4059997  0.0896704    0.00000       Uiso       1.00
      C533          C  0.8603055  0.4064285  0.1108582    0.00000       Uiso       1.00
      C534          C  0.8641488  0.3847456  0.1130772    0.00000       Uiso       1.00
      C535          C  0.8669175  0.3629380  0.0928194    0.00000       Uiso       1.00
      C536          C  0.8645058  0.3626124  0.0704749    0.00000       Uiso       1.00
       O23          O  0.8634928  0.4023147  0.0455155    0.00000       Uiso       1.00
      H256          H  0.8583643  0.4227111  0.0887927    0.00000       Uiso       1.00
      H257          H  0.8575583  0.4238563  0.1254454    0.00000       Uiso       1.00
      H258          H  0.8725427  0.3457725  0.0949061    0.00000       Uiso       1.00
      C537          C  0.8640082  0.2135159  0.0286871    0.00000       Uiso       1.00
      C538          C  0.8627194  0.2345116  0.0275769    0.00000       Uiso       1.00
      C539          C  0.8602577  0.2351831  0.0058028    0.00000       Uiso       1.00
      C540          C  0.8602452  0.2559322  0.0053580    0.00000       Uiso       1.00
      C541          C  0.8640849  0.2759964  0.0270368    0.00000       Uiso       1.00
      C542          C  0.8668861  0.2747753  0.0488581    0.00000       Uiso       1.00
      C543          C  0.8645157  0.2551530  0.0492014    0.00000       Uiso       1.00
       O24          O  0.8634865  0.1915122  0.0094972    0.00000       Uiso       1.00
      H259          H  0.8583314  0.2195081  0.9890970    0.00000       Uiso       1.00
      H260          H  0.8574801  0.2558419  0.9879243    0.00000       Uiso       1.00
      H261          H  0.8725044  0.2884151  0.0660174    0.00000       Uiso       1.00
      C544          C  0.8671826  0.2125184  0.0501230    0.00000       Uiso       1.00
      C545          C  0.8677640  0.2329270  0.0715736    0.00000       Uiso       1.00
      C546          C  0.8704216  0.2319999  0.0933040    0.00000       Uiso       1.00
      C547          C  0.8700293  0.2528982  0.1143312    0.00000       Uiso       1.00
      C548          C  0.8655541  0.2756153  0.1137165    0.00000       Uiso       1.00
      C549          C  0.8623694  0.2762502  0.0914536    0.00000       Uiso       1.00
      C550          C  0.8652185  0.2549384  0.0708910    0.00000       Uiso       1.00
       O25          O  0.8689923  0.1897858  0.0475545    0.00000       Uiso       1.00
      H262          H  0.8729004  0.2149413  0.0939373    0.00000       Uiso       1.00
      H263          H  0.8730636  0.2509857  0.1308684    0.00000       Uiso       1.00
      H264          H  0.8562208  0.2936517  0.0895854    0.00000       Uiso       1.00
      C551          C  0.8671187  0.3617044  0.0295631    0.00000       Uiso       1.00
      C552          C  0.8676776  0.3402609  0.0290960    0.00000       Uiso       1.00
      C553          C  0.8702830  0.3185415  0.0090755    0.00000       Uiso       1.00
      C554          C  0.8698746  0.2975227  0.0085536    0.00000       Uiso       1.00
      C555          C  0.8654402  0.2981313  0.0274347    0.00000       Uiso       1.00
      C556          C  0.8623043  0.3203852  0.0471662    0.00000       Uiso       1.00
      C557          C  0.8651654  0.3409376  0.0492601    0.00000       Uiso       1.00
       O26          O  0.8689212  0.3642737  0.0112056    0.00000       Uiso       1.00
      H265          H  0.8727441  0.3179062  0.9938497    0.00000       Uiso       1.00
      H266          H  0.8728721  0.2809945  0.9931192    0.00000       Uiso       1.00
      H267          H  0.8561733  0.3222652  0.0603068    0.00000       Uiso       1.00
      C558          C  0.8671838  0.3822134  0.1992901    0.00000       Uiso       1.00
      C559          C  0.8677590  0.3826703  0.1788774    0.00000       Uiso       1.00
      C560          C  0.8703572  0.4026941  0.1797844    0.00000       Uiso       1.00
      C561          C  0.8699455  0.4032213  0.1588805    0.00000       Uiso       1.00
      C562          C  0.8655243  0.3843337  0.1361736    0.00000       Uiso       1.00
      C563          C  0.8624059  0.3645903  0.1355619    0.00000       Uiso       1.00
      C564          C  0.8652612  0.3624999  0.1568819    0.00000       Uiso       1.00
       O27          O  0.8689590  0.4005860  0.2220090    0.00000       Uiso       1.00
      H268          H  0.8728088  0.4179212  0.1968377    0.00000       Uiso       1.00
      H269          H  0.8729274  0.4186661  0.1607865    0.00000       Uiso       1.00
      H270          H  0.8562877  0.3514407  0.1181695    0.00000       Uiso       1.00
       B16          B  0.8666464  0.3902556  0.2352228    0.00000       Uiso       1.00
       B17          B  0.8666302  0.3901249  0.0215465    0.00000       Uiso       1.00
       B18          B  0.8666531  0.1765850  0.0216918    0.00000       Uiso       1.00
       O28          O  0.7768217  0.8147018  0.9565593    0.00000       Uiso       1.00
       B19          B  0.8015781  0.8015793  0.9562445    0.00000       Uiso       1.00
       B20          B  0.8015782  0.7648741  0.9562445    0.00000       Uiso       1.00
       O29          O  0.8147007  0.7768228  0.9565592    0.00000       Uiso       1.00
       O30          O  0.7768218  0.7768224  0.9565594    0.00000       Uiso       1.00
       B21          B  0.7648734  0.8015788  0.9562445    0.00000       Uiso       1.00
      C565          C  0.3629290  0.8640406  0.0286696    0.00000       Uiso       1.00
      C566          C  0.3420964  0.8627852  0.0275672    0.00000       Uiso       1.00
      C567          C  0.3221017  0.8603454  0.0057997    0.00000       Uiso       1.00
      C568          C  0.3009144  0.8603564  0.0053643    0.00000       Uiso       1.00
      C569          C  0.2986918  0.8641980  0.0270449    0.00000       Uiso       1.00
      C570          C  0.3189351  0.8669904  0.0488605    0.00000       Uiso       1.00
      C571          C  0.3412794  0.8645887  0.0491944    0.00000       Uiso       1.00
       O31          O  0.3662722  0.8635145  0.0094811    0.00000       Uiso       1.00
      H271          H  0.3229924  0.8584059  0.9890870    0.00000       Uiso       1.00
      H272          H  0.2863321  0.8575971  0.9879335    0.00000       Uiso       1.00
      H273          H  0.3168341  0.8726174  0.0660212    0.00000       Uiso       1.00
      C572          C  0.3831204  0.8639743  0.1982677    0.00000       Uiso       1.00
      C573          C  0.3842258  0.8627045  0.1772758    0.00000       Uiso       1.00
      C574          C  0.4059886  0.8602766  0.1766081    0.00000       Uiso       1.00
      C575          C  0.4064179  0.8602950  0.1558675    0.00000       Uiso       1.00
      C576          C  0.3847352  0.8641385  0.1358090    0.00000       Uiso       1.00
      C577          C  0.3629273  0.8669070  0.1370277    0.00000       Uiso       1.00
      C578          C  0.3626013  0.8644949  0.1566345    0.00000       Uiso       1.00
       O32          O  0.4023027  0.8634810  0.2202823    0.00000       Uiso       1.00
      H274          H  0.4226999  0.8583533  0.1922738    0.00000       Uiso       1.00
      H275          H  0.4238458  0.8575479  0.1559610    0.00000       Uiso       1.00
      H276          H  0.3457620  0.8725325  0.1234010    0.00000       Uiso       1.00
      C579          C  0.2135056  0.8639981  0.0488290    0.00000       Uiso       1.00
      C580          C  0.2345010  0.8627089  0.0696458    0.00000       Uiso       1.00
      C581          C  0.2351721  0.8602468  0.0896293    0.00000       Uiso       1.00
      C582          C  0.2559209  0.8602341  0.1108105    0.00000       Uiso       1.00
      C583          C  0.2759854  0.8640740  0.1130357    0.00000       Uiso       1.00
      C584          C  0.2747647  0.8668756  0.0927950    0.00000       Uiso       1.00
      C585          C  0.2551426  0.8645055  0.0704592    0.00000       Uiso       1.00
       O33          O  0.1915017  0.8634762  0.0454933    0.00000       Uiso       1.00
      H277          H  0.2194973  0.8583208  0.0887341    0.00000       Uiso       1.00
      H278          H  0.2558306  0.8574691  0.1253890    0.00000       Uiso       1.00
      H279          H  0.2884046  0.8724941  0.0948939    0.00000       Uiso       1.00
      C586          C  0.2125084  0.8671728  0.0295704    0.00000       Uiso       1.00
      C587          C  0.2329173  0.8677544  0.0291100    0.00000       Uiso       1.00
      C588          C  0.2319907  0.8704125  0.0091106    0.00000       Uiso       1.00
      C589          C  0.2528892  0.8700204  0.0085895    0.00000       Uiso       1.00
      C590          C  0.2756060  0.8655450  0.0274460    0.00000       Uiso       1.00
      C591          C  0.2762405  0.8623599  0.0471586    0.00000       Uiso       1.00
      C592          C  0.2549285  0.8652088  0.0492583    0.00000       Uiso       1.00
       O34          O  0.1897761  0.8689827  0.0112162    0.00000       Uiso       1.00
      H280          H  0.2149318  0.8728912  0.9938974    0.00000       Uiso       1.00
      H281          H  0.2509766  0.8730547  0.9931743    0.00000       Uiso       1.00
      H282          H  0.2936418  0.8562111  0.0602795    0.00000       Uiso       1.00
      C593          C  0.3616925  0.8671069  0.1992503    0.00000       Uiso       1.00
      C594          C  0.3402492  0.8676660  0.1788331    0.00000       Uiso       1.00
      C595          C  0.3185295  0.8702712  0.1797393    0.00000       Uiso       1.00
      C596          C  0.2975109  0.8698630  0.1588342    0.00000       Uiso       1.00
      C597          C  0.2981200  0.8654290  0.1361278    0.00000       Uiso       1.00
      C598          C  0.3203742  0.8622932  0.1355145    0.00000       Uiso       1.00
      C599          C  0.3409262  0.8651543  0.1568338    0.00000       Uiso       1.00
       O35          O  0.3642613  0.8689090  0.2219793    0.00000       Uiso       1.00
      H283          H  0.3178943  0.8727324  0.1967912    0.00000       Uiso       1.00
      H284          H  0.2809829  0.8728607  0.1607383    0.00000       Uiso       1.00
      H285          H  0.3222544  0.8561627  0.1181233    0.00000       Uiso       1.00
      C600          C  0.3822048  0.8671754  0.0501007    0.00000       Uiso       1.00
      C601          C  0.3826613  0.8677502  0.0715452    0.00000       Uiso       1.00
      C602          C  0.4026849  0.8703481  0.0932599    0.00000       Uiso       1.00
      C603          C  0.4032117  0.8699360  0.1142790    0.00000       Uiso       1.00
      C604          C  0.3843238  0.8655145  0.1136767    0.00000       Uiso       1.00
      C605          C  0.3645807  0.8623964  0.0914271    0.00000       Uiso       1.00
      C606          C  0.3624907  0.8652520  0.0708722    0.00000       Uiso       1.00
       O36          O  0.4005777  0.8689509  0.0475300    0.00000       Uiso       1.00
      H286          H  0.4179122  0.8727998  0.0938855    0.00000       Uiso       1.00
      H287          H  0.4186563  0.8729178  0.1307996    0.00000       Uiso       1.00
      H288          H  0.3514309  0.8562780  0.0895513    0.00000       Uiso       1.00
       B22          B  0.3902477  0.8666387  0.0216737    0.00000       Uiso       1.00
       B23          B  0.3901124  0.8666180  0.2351984    0.00000       Uiso       1.00
       B24          B  0.1765748  0.8666431  0.0215384    0.00000       Uiso       1.00
