data_68
_audit_creation_date              0000-00-00
_audit_creation_method            'LanYouShi'
_symmetry_space_group_name_H-M    'P1'
_cell_length_a                    68.1961975
_cell_length_b                    68.1961975
_cell_length_c                    68.1968994
_cell_angle_alpha                 120.0002975
_cell_angle_beta                  59.9996986
_cell_angle_gamma                 120.0007019
loop_
_atom_site_label
_atom_site_type_symbol
_atom_site_fract_x
_atom_site_fract_y
_atom_site_fract_z
_atom_site_U_iso_or_equiv
_atom_site_adp_type
_atom_site_occupancy
        C1          C  0.2669880  0.4047256  0.5424634    0.00000       Uiso       1.00
        C2          C  0.2794593  0.3924132  0.5406993    0.00000       Uiso       1.00
        C3          C  0.3042906  0.4029069  0.5369285    0.00000       Uiso       1.00
        C4          C  0.2794596  0.4277454  0.5406997    0.00000       Uiso       1.00
        C5          C  0.3042897  0.4382893  0.5368248    0.00000       Uiso       1.00
        C6          C  0.3171527  0.4260098  0.5348132    0.00000       Uiso       1.00
        H1          H  0.5438033  0.4643294  0.6071539    0.00000       Uiso       1.00
        H2          H  0.5440099  0.6864716  0.6072505    0.00000       Uiso       1.00
        H3          H  0.2695580  0.4380683  0.5421585    0.00000       Uiso       1.00
        C7          C  0.5952711  0.4575343  0.5952721    0.00000       Uiso       1.00
        C8          C  0.5722513  0.4592981  0.6075842    0.00000       Uiso       1.00
        C9          C  0.5617077  0.4631731  0.5971730    0.00000       Uiso       1.00
       C10          C  0.6075836  0.4592985  0.5722528    0.00000       Uiso       1.00
       C11          C  0.5970899  0.4630691  0.5616861    0.00000       Uiso       1.00
       C12          C  0.5739871  0.4651844  0.5740423    0.00000       Uiso       1.00
        H4          H  0.3135267  0.3927477  0.5352092    0.00000       Uiso       1.00
        H5          H  0.5356685  0.3928460  0.3133730    0.00000       Uiso       1.00
        H6          H  0.5619284  0.4578391  0.6263497    0.00000       Uiso       1.00
       C13          C  0.5952739  0.7330111  0.5952747    0.00000       Uiso       1.00
       C14          C  0.6075863  0.7205399  0.5722552    0.00000       Uiso       1.00
       C15          C  0.5971750  0.6957096  0.5617117    0.00000       Uiso       1.00
       C16          C  0.5722540  0.7205395  0.6075867    0.00000       Uiso       1.00
       C17          C  0.5616868  0.6957083  0.5970926    0.00000       Uiso       1.00
       C18          C  0.5740436  0.6828467  0.5739904    0.00000       Uiso       1.00
        H7          H  0.5352132  0.4559920  0.3135312    0.00000       Uiso       1.00
        H8          H  0.3133697  0.4561938  0.5356688    0.00000       Uiso       1.00
        H9          H  0.6263522  0.7304418  0.5619326    0.00000       Uiso       1.00
       C19          C  0.5424647  0.4047285  0.2669924    0.00000       Uiso       1.00
       C20          C  0.5407009  0.4277483  0.2794637    0.00000       Uiso       1.00
       C21          C  0.5369310  0.4383152  0.3042947    0.00000       Uiso       1.00
       C22          C  0.5407005  0.3924160  0.2794634    0.00000       Uiso       1.00
       C23          C  0.5368254  0.4028270  0.3042932    0.00000       Uiso       1.00
       C24          C  0.5348150  0.4259582  0.3171562    0.00000       Uiso       1.00
       H10          H  0.6071560  0.6866294  0.5438077    0.00000       Uiso       1.00
       H11          H  0.6072490  0.4647883  0.5440101    0.00000       Uiso       1.00
       C25          C  0.5000002  0.5000011  0.5000008    0.00000       Uiso       1.00
       H12          H  0.5421592  0.3736502  0.2695616    0.00000       Uiso       1.00
        F1          F  0.2665173  0.3678858  0.5426056    0.00000       Uiso       1.00
        F2          F  0.5426078  0.4412406  0.2665224    0.00000       Uiso       1.00
        F3          F  0.5587619  0.7334810  0.6321136    0.00000       Uiso       1.00
        F4          F  0.6321107  0.4573920  0.5587608    0.00000       Uiso       1.00
       C26          C  0.3437705  0.4371497  0.5303615    0.00000       Uiso       1.00
       C27          C  0.3543368  0.4344005  0.5416688    0.00000       Uiso       1.00
       C28          C  0.3792348  0.4447650  0.5374153    0.00000       Uiso       1.00
       C29          C  0.3589216  0.4506164  0.5146711    0.00000       Uiso       1.00
       C30          C  0.3838142  0.4609608  0.5103978    0.00000       Uiso       1.00
       C31          C  0.3944082  0.4582215  0.5216992    0.00000       Uiso       1.00
       H13          H  0.5293026  0.5022181  0.5780404    0.00000       Uiso       1.00
       H14          H  0.5092071  0.6134290  0.5574384    0.00000       Uiso       1.00
       H15          H  0.3515726  0.4527607  0.5052752    0.00000       Uiso       1.00
       C32          C  0.5628476  0.4696358  0.5630161    0.00000       Uiso       1.00
       C33          C  0.5493838  0.4853288  0.5770215    0.00000       Uiso       1.00
       C34          C  0.5390404  0.4896032  0.5667470    0.00000       Uiso       1.00
       C35          C  0.5655951  0.4583267  0.5383937    0.00000       Uiso       1.00
       C36          C  0.5552312  0.4625812  0.5281143    0.00000       Uiso       1.00
       C37          C  0.5417778  0.4782997  0.5421127    0.00000       Uiso       1.00
       H16          H  0.3865747  0.4425392  0.5467616    0.00000       Uiso       1.00
       H17          H  0.4977820  0.4219626  0.3948783    0.00000       Uiso       1.00
       H18          H  0.5472422  0.4947269  0.5959099    0.00000       Uiso       1.00
       C38          C  0.5630175  0.6562293  0.5628504    0.00000       Uiso       1.00
       C39          C  0.5770217  0.6410772  0.5493934    0.00000       Uiso       1.00
       C40          C  0.5667459  0.6161845  0.5390488    0.00000       Uiso       1.00
       C41          C  0.5383970  0.6456646  0.5655891    0.00000       Uiso       1.00
       C42          C  0.5281169  0.6207670  0.5552228    0.00000       Uiso       1.00
       C43          C  0.5421141  0.6055927  0.5417762    0.00000       Uiso       1.00
       H19          H  0.5467831  0.4907950  0.3865728    0.00000       Uiso       1.00
       H20          H  0.3948735  0.4707035  0.4977873    0.00000       Uiso       1.00
       H21          H  0.5959089  0.6484253  0.5472569    0.00000       Uiso       1.00
       C44          C  0.5303637  0.4369837  0.3437733    0.00000       Uiso       1.00
       C45          C  0.5416791  0.4616049  0.3543386    0.00000       Uiso       1.00
       C46          C  0.5374283  0.4718845  0.3792357    0.00000       Uiso       1.00
       C47          C  0.5146670  0.4229783  0.3589244    0.00000       Uiso       1.00
       C48          C  0.5103955  0.4332536  0.3838166    0.00000       Uiso       1.00
       C49          C  0.5217057  0.4578860  0.3944094    0.00000       Uiso       1.00
       H22          H  0.5780356  0.6051219  0.5293133    0.00000       Uiso       1.00
       H23          H  0.5574551  0.4532350  0.5092027    0.00000       Uiso       1.00
       H24          H  0.5052661  0.4040906  0.3515762    0.00000       Uiso       1.00
        F5          F  0.3390815  0.4208331  0.5588912    0.00000       Uiso       1.00
        F6          F  0.5589088  0.4771377  0.3390824    0.00000       Uiso       1.00
        F7          F  0.5228659  0.6609222  0.5791457    0.00000       Uiso       1.00
        F8          F  0.5791606  0.4411026  0.5228598    0.00000       Uiso       1.00
       C50          C  0.4210948  0.4691833  0.5170013    0.00000       Uiso       1.00
       C51          C  0.4338418  0.4570189  0.5153009    0.00000       Uiso       1.00
       C52          C  0.4588245  0.4670168  0.5104335    0.00000       Uiso       1.00
       C53          C  0.4342271  0.4916387  0.5135387    0.00000       Uiso       1.00
       C54          C  0.4592028  0.5016177  0.5086566    0.00000       Uiso       1.00
       C55          C  0.4720173  0.4899588  0.5078189    0.00000       Uiso       1.00
       H25          H  0.4815060  0.4947616  0.5446371    0.00000       Uiso       1.00
       H26          H  0.4803222  0.5320807  0.5435454    0.00000       Uiso       1.00
       H27          H  0.4251730  0.5015712  0.5145805    0.00000       Uiso       1.00
       C56          C  0.5308168  0.4829972  0.5310854    0.00000       Uiso       1.00
       C57          C  0.5083623  0.4864607  0.5438717    0.00000       Uiso       1.00
       C58          C  0.4983833  0.4913451  0.5337588    0.00000       Uiso       1.00
       C59          C  0.5429810  0.4846975  0.5078746    0.00000       Uiso       1.00
       C60          C  0.5329831  0.4895669  0.4977589    0.00000       Uiso       1.00
       C61          C  0.5100423  0.4921833  0.5101234    0.00000       Uiso       1.00
       H28          H  0.4679218  0.4564512  0.5082061    0.00000       Uiso       1.00
       H29          H  0.5052298  0.4553564  0.4686202    0.00000       Uiso       1.00
       H30          H  0.4984333  0.4854198  0.5618169    0.00000       Uiso       1.00
       C62          C  0.5310884  0.5789067  0.5308139    0.00000       Uiso       1.00
       C63          C  0.5438752  0.5657747  0.5083600    0.00000       Uiso       1.00
       C64          C  0.5337610  0.5407989  0.4983824    0.00000       Uiso       1.00
       C65          C  0.5078777  0.5661601  0.5429780    0.00000       Uiso       1.00
       C66          C  0.4977596  0.5411775  0.5329812    0.00000       Uiso       1.00
       C67          C  0.5101240  0.5279848  0.5100409    0.00000       Uiso       1.00
       H31          H  0.5082158  0.5196787  0.4679226    0.00000       Uiso       1.00
       H32          H  0.4686160  0.5184984  0.5052462    0.00000       Uiso       1.00
       H33          H  0.5618202  0.5748290  0.4984276    0.00000       Uiso       1.00
       C68          C  0.5170067  0.4689111  0.4210956    0.00000       Uiso       1.00
       C69          C  0.5153098  0.4921233  0.4338412    0.00000       Uiso       1.00
       C70          C  0.5104394  0.5022410  0.4588242    0.00000       Uiso       1.00
       C71          C  0.5135357  0.4561223  0.4342295    0.00000       Uiso       1.00
       C72          C  0.5086495  0.4662371  0.4592056    0.00000       Uiso       1.00
       C73          C  0.5078172  0.4898754  0.4720187    0.00000       Uiso       1.00
       H34          H  0.5446411  0.5313870  0.4815034    0.00000       Uiso       1.00
       H35          H  0.5435478  0.4917975  0.4803247    0.00000       Uiso       1.00
       H36          H  0.5145734  0.4381756  0.4251781    0.00000       Uiso       1.00
        F9          F  0.4210945  0.4326506  0.5175809    0.00000       Uiso       1.00
       F10          F  0.5176020  0.5060262  0.4210889    0.00000       Uiso       1.00
       F11          F  0.4939777  0.5789109  0.5673442    0.00000       Uiso       1.00
       F12          F  0.5673504  0.4824203  0.4939741    0.00000       Uiso       1.00
       C74          C  0.1724579  0.0347219  0.2669984    0.00000       Uiso       1.00
       C75          C  0.1847701  0.0364857  0.2794696    0.00000       Uiso       1.00
       C76          C  0.1742763  0.0402565  0.3043005    0.00000       Uiso       1.00
       C77          C  0.1494382  0.0364857  0.2794696    0.00000       Uiso       1.00
       C78          C  0.1388944  0.0403605  0.3042993    0.00000       Uiso       1.00
       C79          C  0.1511735  0.0423719  0.3171623    0.00000       Uiso       1.00
       H37          H  0.1128516  0.9700285  0.5438100    0.00000       Uiso       1.00
       H38          H  0.8907121  0.9699340  0.5440142    0.00000       Uiso       1.00
       H39          H  0.1391155  0.0350271  0.2695680    0.00000       Uiso       1.00
       C80          C  0.1196464  0.9819099  0.5952772    0.00000       Uiso       1.00
       C81          C  0.1178825  0.9695977  0.5722577    0.00000       Uiso       1.00
       C82          C  0.1140079  0.9800093  0.5617142    0.00000       Uiso       1.00
       C83          C  0.1178817  0.0049288  0.6075896    0.00000       Uiso       1.00
       C84          C  0.1141114  0.0154958  0.5970960    0.00000       Uiso       1.00
       C85          C  0.1119961  0.0031396  0.5739934    0.00000       Uiso       1.00
       H40          H  0.1844353  0.0419756  0.3135366    0.00000       Uiso       1.00
       H41          H  0.1843398  0.2638141  0.5356761    0.00000       Uiso       1.00
       H42          H  0.1193412  0.9508319  0.5619348    0.00000       Uiso       1.00
       C86          C  0.8441729  0.9819099  0.5952771    0.00000       Uiso       1.00
       C87          C  0.8566435  0.0049289  0.6075895    0.00000       Uiso       1.00
       C88          C  0.8814738  0.0154725  0.5971787    0.00000       Uiso       1.00
       C89          C  0.8566443  0.9695978  0.5722576    0.00000       Uiso       1.00
       C90          C  0.8814755  0.9800920  0.5616908    0.00000       Uiso       1.00
       C91          C  0.8943366  0.0031936  0.5740476    0.00000       Uiso       1.00
       H43          H  0.1211944  0.2636565  0.5352202    0.00000       Uiso       1.00
       H44          H  0.1209899  0.0415166  0.3133790    0.00000       Uiso       1.00
       H45          H  0.8467417  0.0152516  0.6263551    0.00000       Uiso       1.00
       C92          C  0.1724583  0.3101958  0.5424722    0.00000       Uiso       1.00
       C93          C  0.1494385  0.2977244  0.5407081    0.00000       Uiso       1.00
       C94          C  0.1388712  0.2728930  0.5369382    0.00000       Uiso       1.00
       C95          C  0.1847704  0.2977244  0.5407081    0.00000       Uiso       1.00
       C96          C  0.1743590  0.2728942  0.5368329    0.00000       Uiso       1.00
       C97          C  0.1512277  0.2600312  0.5348222    0.00000       Uiso       1.00
       H46          H  0.8905542  0.0333766  0.6071596    0.00000       Uiso       1.00
       H47          H  0.1123926  0.0331721  0.6072550    0.00000       Uiso       1.00
       C98          C  0.0771821  0.0771838  0.5000070    0.00000       Uiso       1.00
       H48          H  0.2035362  0.3076261  0.5421669    0.00000       Uiso       1.00
       F13          F  0.2092973  0.0345792  0.2665280    0.00000       Uiso       1.00
       F14          F  0.1359466  0.3106661  0.5426148    0.00000       Uiso       1.00
       F15          F  0.8437025  0.9450706  0.5587655    0.00000       Uiso       1.00
       F16          F  0.1197883  0.0184207  0.6321166    0.00000       Uiso       1.00
       C99          C  0.1400336  0.0468235  0.3437797    0.00000       Uiso       1.00
      C100          C  0.1427825  0.0355159  0.3543459    0.00000       Uiso       1.00
      C101          C  0.1324179  0.0397693  0.3792435    0.00000       Uiso       1.00
      C102          C  0.1265672  0.0625142  0.3589304    0.00000       Uiso       1.00
      C103          C  0.1162229  0.0667874  0.3838226    0.00000       Uiso       1.00
      C104          C  0.1189618  0.0554857  0.3944166    0.00000       Uiso       1.00
       H49          H  0.0749640  0.9991431  0.5293090    0.00000       Uiso       1.00
       H50          H  0.9637545  0.0197460  0.5092126    0.00000       Uiso       1.00
       H51          H  0.1244233  0.0719104  0.3515816    0.00000       Uiso       1.00
      C105          C  0.1075451  0.0141662  0.5628540    0.00000       Uiso       1.00
      C106          C  0.0918521  0.0001607  0.5493901    0.00000       Uiso       1.00
      C107          C  0.0875781  0.0104357  0.5390468    0.00000       Uiso       1.00
      C108          C  0.1188546  0.0387889  0.5656016    0.00000       Uiso       1.00
      C109          C  0.1146005  0.0490688  0.5552378    0.00000       Uiso       1.00
      C110          C  0.0988819  0.0350703  0.5417845    0.00000       Uiso       1.00
       H52          H  0.1346435  0.0304227  0.3865834    0.00000       Uiso       1.00
       H53          H  0.1552221  0.1823078  0.4977897    0.00000       Uiso       1.00
       H54          H  0.0824546  0.9812729  0.5472485    0.00000       Uiso       1.00
      C111          C  0.9209540  0.0143338  0.5630220    0.00000       Uiso       1.00
      C112          C  0.9361061  0.0277908  0.5770261    0.00000       Uiso       1.00
      C113          C  0.9609988  0.0381354  0.5667507    0.00000       Uiso       1.00
      C114          C  0.9315187  0.0115951  0.5384017    0.00000       Uiso       1.00
      C115          C  0.9564165  0.0219615  0.5281220    0.00000       Uiso       1.00
      C116          C  0.9715907  0.0354080  0.5421193    0.00000       Uiso       1.00
       H55          H  0.0863901  0.1906136  0.5467896    0.00000       Uiso       1.00
       H56          H  0.1064804  0.0793982  0.3948817    0.00000       Uiso       1.00
       H57          H  0.9287580  0.0299271  0.5959130    0.00000       Uiso       1.00
      C117          C  0.1402019  0.2334137  0.5303710    0.00000       Uiso       1.00
      C118          C  0.1155806  0.2228483  0.5416859    0.00000       Uiso       1.00
      C119          C  0.1053006  0.1979508  0.5374351    0.00000       Uiso       1.00
      C120          C  0.1542069  0.2182622  0.5146745    0.00000       Uiso       1.00
      C121          C  0.1439313  0.1933697  0.5104030    0.00000       Uiso       1.00
      C122          C  0.1192988  0.1827768  0.5217127    0.00000       Uiso       1.00
       H58          H  0.9720615  0.0478708  0.5780404    0.00000       Uiso       1.00
       H59          H  0.1239469  0.0679806  0.5574618    0.00000       Uiso       1.00
       H60          H  0.1730948  0.2256106  0.5052739    0.00000       Uiso       1.00
       F17          F  0.1563495  0.0182930  0.3390909    0.00000       Uiso       1.00
       F18          F  0.1000481  0.2381047  0.5589153    0.00000       Uiso       1.00
       F19          F  0.9162621  0.9980394  0.5228707    0.00000       Uiso       1.00
       F20          F  0.1360788  0.0543229  0.5791672    0.00000       Uiso       1.00
      C123          C  0.1079999  0.0601834  0.4211027    0.00000       Uiso       1.00
      C124          C  0.1201641  0.0618837  0.4338497    0.00000       Uiso       1.00
      C125          C  0.1101662  0.0667510  0.4588321    0.00000       Uiso       1.00
      C126          C  0.0855447  0.0636462  0.4342347    0.00000       Uiso       1.00
      C127          C  0.0755657  0.0685283  0.4592100    0.00000       Uiso       1.00
      C128          C  0.0872244  0.0693657  0.4720246    0.00000       Uiso       1.00
       H61          H  0.0824207  0.0325466  0.4815130    0.00000       Uiso       1.00
       H62          H  0.0451021  0.0336389  0.4803288    0.00000       Uiso       1.00
       H63          H  0.0756124  0.0626046  0.4251806    0.00000       Uiso       1.00
      C129          C  0.0941848  0.0460981  0.5308234    0.00000       Uiso       1.00
      C130          C  0.0907213  0.0333118  0.5083690    0.00000       Uiso       1.00
      C131          C  0.0858372  0.0434250  0.4983902    0.00000       Uiso       1.00
      C132          C  0.0924850  0.0693092  0.5429875    0.00000       Uiso       1.00
      C133          C  0.0876159  0.0794253  0.5329896    0.00000       Uiso       1.00
      C134          C  0.0849995  0.0670608  0.5100489    0.00000       Uiso       1.00
       H64          H  0.1207317  0.0689782  0.4679294    0.00000       Uiso       1.00
       H65          H  0.1218270  0.1085646  0.5052369    0.00000       Uiso       1.00
       H66          H  0.0917619  0.0153662  0.4984402    0.00000       Uiso       1.00
      C135          C  0.9982769  0.0463705  0.5310940    0.00000       Uiso       1.00
      C136          C  0.0114086  0.0688245  0.5438808    0.00000       Uiso       1.00
      C137          C  0.0363844  0.0788022  0.5337670    0.00000       Uiso       1.00
      C138          C  0.0110227  0.0342062  0.5078837    0.00000       Uiso       1.00
      C139          C  0.0360054  0.0442031  0.4977660    0.00000       Uiso       1.00
      C140          C  0.0491984  0.0671437  0.5101303    0.00000       Uiso       1.00
       H67          H  0.0575053  0.1092628  0.5082223    0.00000       Uiso       1.00
       H68          H  0.0586852  0.0719388  0.4686230    0.00000       Uiso       1.00
       H69          H  0.0023543  0.0787571  0.5618255    0.00000       Uiso       1.00
      C141          C  0.1082733  0.1560902  0.5170137    0.00000       Uiso       1.00
      C142          C  0.0850611  0.1433445  0.5153165    0.00000       Uiso       1.00
      C143          C  0.0749429  0.1183611  0.5104461    0.00000       Uiso       1.00
      C144          C  0.1210617  0.1429559  0.5135428    0.00000       Uiso       1.00
      C145          C  0.1109465  0.1179795  0.5086566    0.00000       Uiso       1.00
      C146          C  0.0873082  0.1051663  0.5078241    0.00000       Uiso       1.00
       H70          H  0.0457965  0.0956814  0.5446470    0.00000       Uiso       1.00
       H71          H  0.0853856  0.0968598  0.5435542    0.00000       Uiso       1.00
       H72          H  0.1390084  0.1520074  0.5145807    0.00000       Uiso       1.00
       F21          F  0.1445322  0.0596035  0.4211028    0.00000       Uiso       1.00
       F22          F  0.0711586  0.1560972  0.5176085    0.00000       Uiso       1.00
       F23          F  0.9982721  0.0098398  0.4939836    0.00000       Uiso       1.00
       F24          F  0.0947622  0.0832098  0.5673566    0.00000       Uiso       1.00
      C147          C  0.5424646  0.3101901  0.1724539    0.00000       Uiso       1.00
      C148          C  0.5407004  0.2977185  0.1847660    0.00000       Uiso       1.00
      C149          C  0.5369293  0.2728872  0.1742722    0.00000       Uiso       1.00
      C150          C  0.5407007  0.2977189  0.1494344    0.00000       Uiso       1.00
      C151          C  0.5368256  0.2728887  0.1388907    0.00000       Uiso       1.00
      C152          C  0.5348138  0.2600254  0.1511697    0.00000       Uiso       1.00
       H73          H  0.6071528  0.0333726  0.1128480    0.00000       Uiso       1.00
       H74          H  0.6072500  0.0331699  0.8907095    0.00000       Uiso       1.00
       H75          H  0.5421597  0.3076207  0.1391119    0.00000       Uiso       1.00
      C153          C  0.5952713  0.9819052  0.1196425    0.00000       Uiso       1.00
      C154          C  0.6075830  0.0049242  0.1178788    0.00000       Uiso       1.00
      C155          C  0.5971717  0.0154681  0.1140042    0.00000       Uiso       1.00
      C156          C  0.5722515  0.9695928  0.1178785    0.00000       Uiso       1.00
      C157          C  0.5616849  0.9800867  0.1141082    0.00000       Uiso       1.00
      C158          C  0.5740405  0.0031888  0.1119930    0.00000       Uiso       1.00
       H76          H  0.5352100  0.2636508  0.1844311    0.00000       Uiso       1.00
       H77          H  0.3133689  0.0415088  0.1843331    0.00000       Uiso       1.00
       H78          H  0.6263487  0.0152471  0.1193377    0.00000       Uiso       1.00
      C159          C  0.5952742  0.9819073  0.8441707    0.00000       Uiso       1.00
      C160          C  0.5722544  0.9695948  0.8566418    0.00000       Uiso       1.00
      C161          C  0.5617108  0.9800057  0.8814718    0.00000       Uiso       1.00
      C162          C  0.6075857  0.0049262  0.8566421    0.00000       Uiso       1.00
      C163          C  0.5970917  0.0154931  0.8814730    0.00000       Uiso       1.00
      C164          C  0.5739891  0.0031361  0.8943346    0.00000       Uiso       1.00
       H79          H  0.3135271  0.0419654  0.1211884    0.00000       Uiso       1.00
       H80          H  0.5356695  0.2638091  0.1209864    0.00000       Uiso       1.00
       H81          H  0.5619314  0.9508290  0.8467401    0.00000       Uiso       1.00
      C165          C  0.2669877  0.0347131  0.1724512    0.00000       Uiso       1.00
      C166          C  0.2794592  0.0364773  0.1494318    0.00000       Uiso       1.00
      C167          C  0.3042905  0.0402473  0.1388649    0.00000       Uiso       1.00
      C168          C  0.2794589  0.0364770  0.1847634    0.00000       Uiso       1.00
      C169          C  0.3042890  0.0403521  0.1743523    0.00000       Uiso       1.00
      C170          C  0.3171521  0.0423630  0.1512215    0.00000       Uiso       1.00
       H82          H  0.5438066  0.9700246  0.8905519    0.00000       Uiso       1.00
       H83          H  0.5440086  0.9699277  0.1123891    0.00000       Uiso       1.00
      C171          C  0.4999990  0.0771779  0.0771786    0.00000       Uiso       1.00
       H84          H  0.2695570  0.0350180  0.2035288    0.00000       Uiso       1.00
       F25          F  0.5426069  0.3106600  0.2092929    0.00000       Uiso       1.00
       F26          F  0.2665176  0.0345709  0.1359400    0.00000       Uiso       1.00
       F27          F  0.6321131  0.0184185  0.8437008    0.00000       Uiso       1.00
       F28          F  0.5587592  0.9450654  0.1197848    0.00000       Uiso       1.00
      C172          C  0.5303618  0.2334077  0.1400298    0.00000       Uiso       1.00
      C173          C  0.5416691  0.2228410  0.1427788    0.00000       Uiso       1.00
      C174          C  0.5374153  0.1979430  0.1324143    0.00000       Uiso       1.00
      C175          C  0.5146711  0.2182569  0.1265634    0.00000       Uiso       1.00
      C176          C  0.5103974  0.1933643  0.1162191    0.00000       Uiso       1.00
      C177          C  0.5216988  0.1827699  0.1189581    0.00000       Uiso       1.00
       H85          H  0.5780392  0.0478746  0.0749605    0.00000       Uiso       1.00
       H86          H  0.5574377  0.0679720  0.9637516    0.00000       Uiso       1.00
       H87          H  0.5052751  0.2256060  0.1244194    0.00000       Uiso       1.00
      C178          C  0.5630144  0.0143287  0.1075419    0.00000       Uiso       1.00
      C179          C  0.5770202  0.0277929  0.0918492    0.00000       Uiso       1.00
      C180          C  0.5667456  0.0381366  0.0875752    0.00000       Uiso       1.00
      C181          C  0.5383918  0.0115811  0.1188510    0.00000       Uiso       1.00
      C182          C  0.5281123  0.0219453  0.1145968    0.00000       Uiso       1.00
      C183          C  0.5421110  0.0353990  0.0988786    0.00000       Uiso       1.00
       H88          H  0.5467616  0.1906029  0.1346399    0.00000       Uiso       1.00
       H89          H  0.3948754  0.0793955  0.1552166    0.00000       Uiso       1.00
       H90          H  0.5959087  0.0299345  0.0824512    0.00000       Uiso       1.00
      C184          C  0.5628490  0.0141618  0.9209517    0.00000       Uiso       1.00
      C185          C  0.5493917  0.0001573  0.9361034    0.00000       Uiso       1.00
      C186          C  0.5390471  0.0104328  0.9609957    0.00000       Uiso       1.00
      C187          C  0.5655881  0.0387825  0.9315162    0.00000       Uiso       1.00
      C188          C  0.5552218  0.0490622  0.9564135    0.00000       Uiso       1.00
      C189          C  0.5417750  0.0350646  0.9715875    0.00000       Uiso       1.00
       H91          H  0.3865694  0.0303954  0.0863853    0.00000       Uiso       1.00
       H92          H  0.4977867  0.1823052  0.1064766    0.00000       Uiso       1.00
       H93          H  0.5472559  0.9812710  0.9287553    0.00000       Uiso       1.00
      C190          C  0.3437695  0.0468142  0.1401960    0.00000       Uiso       1.00
      C191          C  0.3543348  0.0354992  0.1155751    0.00000       Uiso       1.00
      C192          C  0.3792323  0.0397500  0.1052955    0.00000       Uiso       1.00
      C193          C  0.3589211  0.0625107  0.1542011    0.00000       Uiso       1.00
      C194          C  0.3838135  0.0667822  0.1439258    0.00000       Uiso       1.00
      C195          C  0.3944063  0.0554724  0.1192937    0.00000       Uiso       1.00
       H94          H  0.5293123  0.9991436  0.9720581    0.00000       Uiso       1.00
       H95          H  0.5092005  0.0197213  0.1239430    0.00000       Uiso       1.00
       H96          H  0.3515728  0.0719113  0.1730886    0.00000       Uiso       1.00
       F29          F  0.5588919  0.2380960  0.1563458    0.00000       Uiso       1.00
       F30          F  0.3390783  0.0182698  0.1000426    0.00000       Uiso       1.00
       F31          F  0.5791450  0.0543139  0.9162590    0.00000       Uiso       1.00
       F32          F  0.5228584  0.9980161  0.1360749    0.00000       Uiso       1.00
      C196          C  0.5170007  0.1560834  0.1079963    0.00000       Uiso       1.00
      C197          C  0.5153000  0.1433360  0.1201604    0.00000       Uiso       1.00
      C198          C  0.5104324  0.1183533  0.1101624    0.00000       Uiso       1.00
      C199          C  0.5135378  0.1429514  0.0855413    0.00000       Uiso       1.00
      C200          C  0.5086553  0.1179757  0.0755623    0.00000       Uiso       1.00
      C201          C  0.5078176  0.1051608  0.0872209    0.00000       Uiso       1.00
       H97          H  0.5446361  0.0956718  0.0824177    0.00000       Uiso       1.00
       H98          H  0.5435443  0.0968565  0.0450994    0.00000       Uiso       1.00
       H99          H  0.5145798  0.1520058  0.0756091    0.00000       Uiso       1.00
      C202          C  0.5310837  0.0463604  0.0941814    0.00000       Uiso       1.00
      C203          C  0.5438704  0.0688151  0.0907181    0.00000       Uiso       1.00
      C204          C  0.5337574  0.0787943  0.0858340    0.00000       Uiso       1.00
      C205          C  0.5078725  0.0341963  0.0924814    0.00000       Uiso       1.00
      C206          C  0.4977568  0.0441945  0.0876123    0.00000       Uiso       1.00
      C207          C  0.5101217  0.0671356  0.0849960    0.00000       Uiso       1.00
      H100          H  0.5082048  0.1092557  0.1207278    0.00000       Uiso       1.00
      H101          H  0.4686181  0.0719477  0.1218226    0.00000       Uiso       1.00
      H102          H  0.5618160  0.0787440  0.0917589    0.00000       Uiso       1.00
      C208          C  0.5308126  0.0460900  0.9982733    0.00000       Uiso       1.00
      C209          C  0.5083579  0.0333038  0.0114059    0.00000       Uiso       1.00
      C210          C  0.4983803  0.0434177  0.0363813    0.00000       Uiso       1.00
      C211          C  0.5429767  0.0693013  0.0110204    0.00000       Uiso       1.00
      C212          C  0.5329798  0.0794191  0.0360027    0.00000       Uiso       1.00
      C213          C  0.5100392  0.0670546  0.0491953    0.00000       Uiso       1.00
      H103          H  0.4679204  0.0689630  0.0575017    0.00000       Uiso       1.00
      H104          H  0.5052449  0.1085628  0.0586820    0.00000       Uiso       1.00
      H105          H  0.4984252  0.0153590  0.0023516    0.00000       Uiso       1.00
      C214          C  0.4210929  0.0601714  0.1082686    0.00000       Uiso       1.00
      C215          C  0.4338386  0.0618687  0.0850568    0.00000       Uiso       1.00
      C216          C  0.4588219  0.0667391  0.0749390    0.00000       Uiso       1.00
      C217          C  0.4342270  0.0636420  0.1210570    0.00000       Uiso       1.00
      C218          C  0.4592033  0.0685282  0.1109422    0.00000       Uiso       1.00
      C219          C  0.4720165  0.0693609  0.0873042    0.00000       Uiso       1.00
      H106          H  0.4815010  0.0325375  0.0457931    0.00000       Uiso       1.00
      H107          H  0.4803223  0.0336299  0.0853818    0.00000       Uiso       1.00
      H108          H  0.4251754  0.0626040  0.1390034    0.00000       Uiso       1.00
       F33          F  0.5175803  0.1560829  0.1445282    0.00000       Uiso       1.00
       F34          F  0.4210861  0.0595769  0.0711543    0.00000       Uiso       1.00
       F35          F  0.5673437  0.0832008  0.9982689    0.00000       Uiso       1.00
       F36          F  0.4939716  0.0098268  0.0947585    0.00000       Uiso       1.00
      C220          C  0.2669818  0.4047197  0.1724452    0.00000       Uiso       1.00
      C221          C  0.2794532  0.4277394  0.1847575    0.00000       Uiso       1.00
      C222          C  0.3042846  0.4383062  0.1742642    0.00000       Uiso       1.00
      C223          C  0.2794532  0.3924075  0.1494257    0.00000       Uiso       1.00
      C224          C  0.3042834  0.4028191  0.1388822    0.00000       Uiso       1.00
      C225          C  0.3171466  0.4259501  0.1511616    0.00000       Uiso       1.00
      H109          H  0.5438007  0.6866252  0.1128447    0.00000       Uiso       1.00
      H110          H  0.5440050  0.4647831  0.8907042    0.00000       Uiso       1.00
      H111          H  0.2695514  0.3736418  0.1391028    0.00000       Uiso       1.00
      C226          C  0.5952687  0.7330067  0.1196402    0.00000       Uiso       1.00
      C227          C  0.5722490  0.7205353  0.1178762    0.00000       Uiso       1.00
      C228          C  0.5617051  0.6957051  0.1140012    0.00000       Uiso       1.00
      C229          C  0.6075809  0.7205353  0.1178762    0.00000       Uiso       1.00
      C230          C  0.5970869  0.6957040  0.1141055    0.00000       Uiso       1.00
      C231          C  0.5739841  0.6828421  0.1119900    0.00000       Uiso       1.00
      H112          H  0.3135209  0.4559824  0.1844233    0.00000       Uiso       1.00
      H113          H  0.5356606  0.4561877  0.1843274    0.00000       Uiso       1.00
      H114          H  0.5619263  0.7304370  0.1193350    0.00000       Uiso       1.00
      C232          C  0.5952687  0.4575316  0.8441657    0.00000       Uiso       1.00
      C233          C  0.6075809  0.4592955  0.8566369    0.00000       Uiso       1.00
      C234          C  0.5971696  0.4631709  0.8814667    0.00000       Uiso       1.00
      C235          C  0.5722489  0.4592955  0.8566369    0.00000       Uiso       1.00
      C236          C  0.5616818  0.4630653  0.8814677    0.00000       Uiso       1.00
      C237          C  0.5740384  0.4651814  0.8943294    0.00000       Uiso       1.00
      H115          H  0.5352046  0.3927440  0.1211821    0.00000       Uiso       1.00
      H116          H  0.3133632  0.3928384  0.1209780    0.00000       Uiso       1.00
      H117          H  0.6263466  0.4578368  0.8467353    0.00000       Uiso       1.00
      C238          C  0.5424559  0.4047198  0.1724451    0.00000       Uiso       1.00
      C239          C  0.5406920  0.3924076  0.1494256    0.00000       Uiso       1.00
      C240          C  0.5369225  0.4029021  0.1388588    0.00000       Uiso       1.00
      C241          C  0.5406920  0.4277395  0.1847575    0.00000       Uiso       1.00
      C242          C  0.5368173  0.4382834  0.1743465    0.00000       Uiso       1.00
      C243          C  0.5348067  0.4260048  0.1512155    0.00000       Uiso       1.00
      H118          H  0.6071504  0.4643281  0.8905470    0.00000       Uiso       1.00
      H119          H  0.6072457  0.6864676  0.1123865    0.00000       Uiso       1.00
      C244          C  0.4999945  0.4999945  0.0771731    0.00000       Uiso       1.00
      H120          H  0.5421507  0.4380621  0.2035230    0.00000       Uiso       1.00
       F37          F  0.2665115  0.4412314  0.2092845    0.00000       Uiso       1.00
       F38          F  0.5425985  0.3678804  0.1359335    0.00000       Uiso       1.00
       F39          F  0.5587570  0.4573890  0.8436953    0.00000       Uiso       1.00
       F40          F  0.6321081  0.7334771  0.1197829    0.00000       Uiso       1.00
      C245          C  0.3437644  0.4369763  0.1400221    0.00000       Uiso       1.00
      C246          C  0.3543311  0.4615996  0.1427714    0.00000       Uiso       1.00
      C247          C  0.3792292  0.4718795  0.1324072    0.00000       Uiso       1.00
      C248          C  0.3589152  0.4229700  0.1265557    0.00000       Uiso       1.00
      C249          C  0.3838078  0.4332450  0.1162117    0.00000       Uiso       1.00
      C250          C  0.3944023  0.4578801  0.1189511    0.00000       Uiso       1.00
      H121          H  0.5292987  0.6051211  0.0749562    0.00000       Uiso       1.00
      H122          H  0.5092017  0.4532102  0.9637456    0.00000       Uiso       1.00
      H123          H  0.3515660  0.4040807  0.1244114    0.00000       Uiso       1.00
      C251          C  0.5628441  0.6562245  0.1075385    0.00000       Uiso       1.00
      C252          C  0.5493802  0.6410731  0.0918455    0.00000       Uiso       1.00
      C253          C  0.5390365  0.6161805  0.0875711    0.00000       Uiso       1.00
      C254          C  0.5655914  0.6456586  0.1188476    0.00000       Uiso       1.00
      C255          C  0.5552270  0.6207603  0.1145930    0.00000       Uiso       1.00
      C256          C  0.5417737  0.6055868  0.0988745    0.00000       Uiso       1.00
      H124          H  0.3865694  0.4907919  0.1346331    0.00000       Uiso       1.00
      H125          H  0.4977750  0.4706908  0.1552107    0.00000       Uiso       1.00
      H126          H  0.5472389  0.6484221  0.0824475    0.00000       Uiso       1.00
      C257          C  0.5630123  0.4696326  0.9209464    0.00000       Uiso       1.00
      C258          C  0.5770165  0.4853318  0.9360985    0.00000       Uiso       1.00
      C259          C  0.5667407  0.4896040  0.9609907    0.00000       Uiso       1.00
      C260          C  0.5383916  0.4583152  0.9315106    0.00000       Uiso       1.00
      C261          C  0.5281115  0.4625664  0.9564079    0.00000       Uiso       1.00
      C262          C  0.5421088  0.4782915  0.9715822    0.00000       Uiso       1.00
      H127          H  0.5467757  0.4425538  0.0863796    0.00000       Uiso       1.00
      H128          H  0.3948669  0.4219509  0.1064692    0.00000       Uiso       1.00
      H129          H  0.5959038  0.4947345  0.9287505    0.00000       Uiso       1.00
      C263          C  0.5303559  0.4371456  0.1401901    0.00000       Uiso       1.00
      C264          C  0.5416713  0.4344051  0.1155693    0.00000       Uiso       1.00
      C265          C  0.5374209  0.4447722  0.1052897    0.00000       Uiso       1.00
      C266          C  0.5146595  0.4506057  0.1541952    0.00000       Uiso       1.00
      C267          C  0.5103883  0.4609514  0.1439200    0.00000       Uiso       1.00
      C268          C  0.5216985  0.4582221  0.1192880    0.00000       Uiso       1.00
      H130          H  0.5780304  0.5022209  0.9720533    0.00000       Uiso       1.00
      H131          H  0.5574508  0.6134185  0.1239391    0.00000       Uiso       1.00
      H132          H  0.5052586  0.4527443  0.1730826    0.00000       Uiso       1.00
       F41          F  0.3390762  0.4771344  0.1563385    0.00000       Uiso       1.00
       F42          F  0.5589007  0.4208456  0.1000368    0.00000       Uiso       1.00
       F43          F  0.5228604  0.4410832  0.9162531    0.00000       Uiso       1.00
       F44          F  0.5791569  0.6609142  0.1360717    0.00000       Uiso       1.00
      C269          C  0.4210889  0.4689071  0.1079897    0.00000       Uiso       1.00
      C270          C  0.4338361  0.4921182  0.1201541    0.00000       Uiso       1.00
      C271          C  0.4588189  0.5022357  0.1101565    0.00000       Uiso       1.00
      C272          C  0.4342210  0.4561213  0.0855347    0.00000       Uiso       1.00
      C273          C  0.4591967  0.4662358  0.0755561    0.00000       Uiso       1.00
      C274          C  0.4720115  0.4898719  0.0872149    0.00000       Uiso       1.00
      H133          H  0.4815010  0.5313767  0.0824122    0.00000       Uiso       1.00
      H134          H  0.4803167  0.4917817  0.0450936    0.00000       Uiso       1.00
      H135          H  0.4251667  0.4381763  0.0756022    0.00000       Uiso       1.00
      C275          C  0.5308122  0.5789005  0.0941769    0.00000       Uiso       1.00
      C276          C  0.5083576  0.5657688  0.0907133    0.00000       Uiso       1.00
      C277          C  0.4983783  0.5407922  0.0858288    0.00000       Uiso       1.00
      C278          C  0.5429761  0.5661533  0.0924769    0.00000       Uiso       1.00
      C279          C  0.5329778  0.5411700  0.0876074    0.00000       Uiso       1.00
      C280          C  0.5100368  0.5279772  0.0849908    0.00000       Uiso       1.00
      H136          H  0.4679164  0.5196715  0.1207221    0.00000       Uiso       1.00
      H137          H  0.5052239  0.5184879  0.1218173    0.00000       Uiso       1.00
      H138          H  0.4984289  0.5748263  0.0917541    0.00000       Uiso       1.00
      C281          C  0.5310830  0.4829893  0.9982678    0.00000       Uiso       1.00
      C282          C  0.5438693  0.4864550  0.0114006    0.00000       Uiso       1.00
      C283          C  0.5337551  0.4913389  0.0363760    0.00000       Uiso       1.00
      C284          C  0.5078721  0.4846904  0.0110148    0.00000       Uiso       1.00
      C285          C  0.4977540  0.4895580  0.0359970    0.00000       Uiso       1.00
      C286          C  0.5101182  0.4921746  0.0491898    0.00000       Uiso       1.00
      H139          H  0.5082092  0.4564534  0.0574958    0.00000       Uiso       1.00
      H140          H  0.4686098  0.4553580  0.0586757    0.00000       Uiso       1.00
      H141          H  0.5618141  0.4854131  0.0023465    0.00000       Uiso       1.00
      C287          C  0.5169999  0.4691846  0.1082629    0.00000       Uiso       1.00
      C288          C  0.5153029  0.4570211  0.0850509    0.00000       Uiso       1.00
      C289          C  0.5104329  0.4670163  0.0749332    0.00000       Uiso       1.00
      C290          C  0.5135292  0.4916366  0.1210515    0.00000       Uiso       1.00
      C291          C  0.5086434  0.5016121  0.1109367    0.00000       Uiso       1.00
      C292          C  0.5078111  0.4899545  0.0872986    0.00000       Uiso       1.00
      H142          H  0.5446351  0.4947518  0.0457879    0.00000       Uiso       1.00
      H143          H  0.5435422  0.5320696  0.0853770    0.00000       Uiso       1.00
      H144          H  0.5145670  0.5015696  0.1389980    0.00000       Uiso       1.00
       F45          F  0.4210890  0.5060194  0.1445220    0.00000       Uiso       1.00
       F46          F  0.5175948  0.4326577  0.0711482    0.00000       Uiso       1.00
       F47          F  0.4939727  0.4824049  0.9982631    0.00000       Uiso       1.00
       F48          F  0.5673454  0.5788994  0.0947543    0.00000       Uiso       1.00
      C293          C  0.1724495  0.4047256  0.5424634    0.00000       Uiso       1.00
      C294          C  0.1847621  0.4277455  0.5406997    0.00000       Uiso       1.00
      C295          C  0.1742686  0.4383122  0.5369289    0.00000       Uiso       1.00
      C296          C  0.1494298  0.3924132  0.5406994    0.00000       Uiso       1.00
      C297          C  0.1388863  0.4028246  0.5368245    0.00000       Uiso       1.00
      C298          C  0.1511659  0.4259558  0.5348132    0.00000       Uiso       1.00
      H145          H  0.1128481  0.6866297  0.6071560    0.00000       Uiso       1.00
      H146          H  0.8907062  0.4647861  0.6072484    0.00000       Uiso       1.00
      H147          H  0.1391068  0.3736473  0.5421579    0.00000       Uiso       1.00
      C299          C  0.1196438  0.7330114  0.5952749    0.00000       Uiso       1.00
      C300          C  0.1178796  0.7205398  0.6075869    0.00000       Uiso       1.00
      C301          C  0.1140047  0.6957098  0.5971754    0.00000       Uiso       1.00
      C302          C  0.1178800  0.7205402  0.5722554    0.00000       Uiso       1.00
      C303          C  0.1141093  0.6957090  0.5616885    0.00000       Uiso       1.00
      C304          C  0.1119937  0.6828469  0.5740445    0.00000       Uiso       1.00
      H148          H  0.1844279  0.4559885  0.5352098    0.00000       Uiso       1.00
      H149          H  0.1843342  0.4561961  0.3133737    0.00000       Uiso       1.00
      H150          H  0.1193383  0.7304414  0.6263525    0.00000       Uiso       1.00
      C305          C  0.8441674  0.4575343  0.5952721    0.00000       Uiso       1.00
      C306          C  0.8566389  0.4592985  0.5722527    0.00000       Uiso       1.00
      C307          C  0.8814692  0.4631743  0.5617095    0.00000       Uiso       1.00
      C308          C  0.8566386  0.4592981  0.6075842    0.00000       Uiso       1.00
      C309          C  0.8814698  0.4630683  0.5970904    0.00000       Uiso       1.00
      C310          C  0.8943318  0.4651848  0.5739883    0.00000       Uiso       1.00
      H151          H  0.1211881  0.3927517  0.3135306    0.00000       Uiso       1.00
      H152          H  0.1209818  0.3928438  0.5356682    0.00000       Uiso       1.00
      H153          H  0.8467374  0.4578398  0.5619300    0.00000       Uiso       1.00
      C311          C  0.1724521  0.4047285  0.2669924    0.00000       Uiso       1.00
      C312          C  0.1494322  0.3924160  0.2794634    0.00000       Uiso       1.00
      C313          C  0.1388651  0.4029101  0.3042944    0.00000       Uiso       1.00
      C314          C  0.1847645  0.4277483  0.2794638    0.00000       Uiso       1.00
      C315          C  0.1743532  0.4382918  0.3042936    0.00000       Uiso       1.00
      C316          C  0.1512218  0.4260128  0.3171562    0.00000       Uiso       1.00
      H154          H  0.8905497  0.4643318  0.5438057    0.00000       Uiso       1.00
      H155          H  0.1123905  0.6864728  0.5440123    0.00000       Uiso       1.00
      C317          C  0.0771769  0.4999997  0.5000008    0.00000       Uiso       1.00
      H156          H  0.2035304  0.4380712  0.2695623    0.00000       Uiso       1.00
       F49          F  0.2092893  0.4412376  0.5426064    0.00000       Uiso       1.00
       F50          F  0.1359400  0.3678888  0.2665217    0.00000       Uiso       1.00
       F51          F  0.8436967  0.4573913  0.6321111    0.00000       Uiso       1.00
       F52          F  0.1197869  0.7334821  0.5587636    0.00000       Uiso       1.00
      C318          C  0.1400263  0.4369819  0.5303615    0.00000       Uiso       1.00
      C319          C  0.1427756  0.4616051  0.5416691    0.00000       Uiso       1.00
      C320          C  0.1324113  0.4718850  0.5374156    0.00000       Uiso       1.00
      C321          C  0.1265599  0.4229756  0.5146708    0.00000       Uiso       1.00
      C322          C  0.1162158  0.4332506  0.5103976    0.00000       Uiso       1.00
      C323          C  0.1189552  0.4578856  0.5216992    0.00000       Uiso       1.00
      H157          H  0.0749594  0.6051256  0.5780415    0.00000       Uiso       1.00
      H158          H  0.9637489  0.4532145  0.5574369    0.00000       Uiso       1.00
      H159          H  0.1244156  0.4040864  0.5052748    0.00000       Uiso       1.00
      C324          C  0.1075422  0.6562294  0.5630180    0.00000       Uiso       1.00
      C325          C  0.0918490  0.6410778  0.5770231    0.00000       Uiso       1.00
      C326          C  0.0875746  0.6161851  0.5667483    0.00000       Uiso       1.00
      C327          C  0.1188516  0.6456638  0.5383956    0.00000       Uiso       1.00
      C328          C  0.1145971  0.6207656  0.5281159    0.00000       Uiso       1.00
      C329          C  0.0988783  0.6055919  0.5421140    0.00000       Uiso       1.00
      H160          H  0.1346371  0.4907973  0.5467621    0.00000       Uiso       1.00
      H161          H  0.1552164  0.4706980  0.3948788    0.00000       Uiso       1.00
      H162          H  0.0824507  0.6484265  0.5959115    0.00000       Uiso       1.00
      C330          C  0.9209492  0.4696364  0.5628486    0.00000       Uiso       1.00
      C331          C  0.9361016  0.4853360  0.5493919    0.00000       Uiso       1.00
      C332          C  0.9609942  0.4896085  0.5390476    0.00000       Uiso       1.00
      C333          C  0.9315135  0.4583191  0.5655873    0.00000       Uiso       1.00
      C334          C  0.9564112  0.4625707  0.5552213    0.00000       Uiso       1.00
      C335          C  0.9715858  0.4782961  0.5417751    0.00000       Uiso       1.00
      H163          H  0.0863846  0.4425604  0.3865724    0.00000       Uiso       1.00
      H164          H  0.1064733  0.4219564  0.4977869    0.00000       Uiso       1.00
      H165          H  0.9287536  0.4947385  0.5472555    0.00000       Uiso       1.00
      C336          C  0.1401960  0.4371531  0.3437733    0.00000       Uiso       1.00
      C337          C  0.1155749  0.4344123  0.3543383    0.00000       Uiso       1.00
      C338          C  0.1052950  0.4447791  0.3792355    0.00000       Uiso       1.00
      C339          C  0.1542011  0.4506132  0.3589247    0.00000       Uiso       1.00
      C340          C  0.1439256  0.4609587  0.3838169    0.00000       Uiso       1.00
      C341          C  0.1192932  0.4582289  0.3944094    0.00000       Uiso       1.00
      H166          H  0.9720571  0.5022257  0.5293124    0.00000       Uiso       1.00
      H167          H  0.1239435  0.6134242  0.5092043    0.00000       Uiso       1.00
      H168          H  0.1730889  0.4527521  0.3515767    0.00000       Uiso       1.00
       F53          F  0.1563426  0.4771399  0.5588918    0.00000       Uiso       1.00
       F54          F  0.1000424  0.4208528  0.3390819    0.00000       Uiso       1.00
       F55          F  0.9162557  0.4410867  0.5791436    0.00000       Uiso       1.00
       F56          F  0.1360761  0.6609199  0.5228621    0.00000       Uiso       1.00
      C342          C  0.1079936  0.4689125  0.5170014    0.00000       Uiso       1.00
      C343          C  0.1201582  0.4921238  0.5153012    0.00000       Uiso       1.00
      C344          C  0.1101606  0.5022413  0.5104339    0.00000       Uiso       1.00
      C345          C  0.0855384  0.4561265  0.5135384    0.00000       Uiso       1.00
      C346          C  0.0755598  0.4662410  0.5086563    0.00000       Uiso       1.00
      C347          C  0.0872188  0.4898772  0.5078190    0.00000       Uiso       1.00
      H169          H  0.0824157  0.5313816  0.5446376    0.00000       Uiso       1.00
      H170          H  0.0450967  0.4917861  0.5435450    0.00000       Uiso       1.00
      H171          H  0.0756059  0.4381814  0.5145800    0.00000       Uiso       1.00
      C348          C  0.0941808  0.5789056  0.5310864    0.00000       Uiso       1.00
      C349          C  0.0907170  0.5657738  0.5438725    0.00000       Uiso       1.00
      C350          C  0.0858325  0.5407972  0.5337593    0.00000       Uiso       1.00
      C351          C  0.0924809  0.5661587  0.5078754    0.00000       Uiso       1.00
      C352          C  0.0876114  0.5411754  0.4977595    0.00000       Uiso       1.00
      C353          C  0.0849947  0.5279824  0.5101238    0.00000       Uiso       1.00
      H172          H  0.1207264  0.5196771  0.5082067    0.00000       Uiso       1.00
      H173          H  0.1218220  0.5184940  0.4686209    0.00000       Uiso       1.00
      H174          H  0.0917576  0.5748310  0.5618179    0.00000       Uiso       1.00
      C354          C  0.9982718  0.4829943  0.5308130    0.00000       Uiso       1.00
      C355          C  0.0114036  0.4864595  0.5083594    0.00000       Uiso       1.00
      C356          C  0.0363794  0.4913438  0.4983820    0.00000       Uiso       1.00
      C357          C  0.0110175  0.4846945  0.5429773    0.00000       Uiso       1.00
      C358          C  0.0360001  0.4895625  0.5329807    0.00000       Uiso       1.00
      C359          C  0.0491932  0.4921795  0.5100406    0.00000       Uiso       1.00
      H175          H  0.0574997  0.4564589  0.4679220    0.00000       Uiso       1.00
      H176          H  0.0586792  0.4553630  0.5052457    0.00000       Uiso       1.00
      H177          H  0.0023495  0.4854176  0.4984268    0.00000       Uiso       1.00
      C360          C  0.1082678  0.4691910  0.4210957    0.00000       Uiso       1.00
      C361          C  0.0850554  0.4570271  0.4338410    0.00000       Uiso       1.00
      C362          C  0.0749374  0.4670220  0.4588239    0.00000       Uiso       1.00
      C363          C  0.1210564  0.4916430  0.4342299    0.00000       Uiso       1.00
      C364          C  0.1109414  0.5016181  0.4592060    0.00000       Uiso       1.00
      C365          C  0.0873029  0.4899602  0.4720187    0.00000       Uiso       1.00
      H178          H  0.0457916  0.4947569  0.4815031    0.00000       Uiso       1.00
      H179          H  0.0853811  0.5320751  0.4803251    0.00000       Uiso       1.00
      H180          H  0.1390033  0.5015762  0.4251787    0.00000       Uiso       1.00
       F57          F  0.1445264  0.5060253  0.5175817    0.00000       Uiso       1.00
       F58          F  0.0711527  0.4326637  0.4210882    0.00000       Uiso       1.00
       F59          F  0.9982668  0.4824095  0.5673433    0.00000       Uiso       1.00
       F60          F  0.0947585  0.5789049  0.4939751    0.00000       Uiso       1.00
      C366          C  0.1724490  0.0347130  0.1724513    0.00000       Uiso       1.00
      C367          C  0.1494292  0.0364769  0.1847634    0.00000       Uiso       1.00
      C368          C  0.1388628  0.0402480  0.1742700    0.00000       Uiso       1.00
      C369          C  0.1847615  0.0364773  0.1494319    0.00000       Uiso       1.00
      C370          C  0.1743503  0.0403524  0.1388884    0.00000       Uiso       1.00
      C371          C  0.1512193  0.0423638  0.1511676    0.00000       Uiso       1.00
      H181          H  0.8905482  0.9700232  0.1128474    0.00000       Uiso       1.00
      H182          H  0.1123916  0.9699302  0.8907090    0.00000       Uiso       1.00
      H183          H  0.2035272  0.0350186  0.1391092    0.00000       Uiso       1.00
      C372          C  0.8441672  0.9819050  0.1196426    0.00000       Uiso       1.00
      C373          C  0.8566384  0.9695926  0.1178786    0.00000       Uiso       1.00
      C374          C  0.8814685  0.9800042  0.1140039    0.00000       Uiso       1.00
      C375          C  0.8566380  0.0049241  0.1178789    0.00000       Uiso       1.00
      C376          C  0.8814691  0.0154910  0.1141086    0.00000       Uiso       1.00
      C377          C  0.8943308  0.0031347  0.1119931    0.00000       Uiso       1.00
      H184          H  0.1211866  0.0419671  0.1844290    0.00000       Uiso       1.00
      H185          H  0.1209838  0.2638080  0.1843353    0.00000       Uiso       1.00
      H186          H  0.8467366  0.9508268  0.1193371    0.00000       Uiso       1.00
      C378          C  0.1196440  0.9819072  0.8441708    0.00000       Uiso       1.00
      C379          C  0.1178794  0.0049261  0.8566422    0.00000       Uiso       1.00
      C380          C  0.1140036  0.0154694  0.8814722    0.00000       Uiso       1.00
      C381          C  0.1178798  0.9695947  0.8566419    0.00000       Uiso       1.00
      C382          C  0.1141097  0.9800885  0.8814727    0.00000       Uiso       1.00
      C383          C  0.1119927  0.0031901  0.8943347    0.00000       Uiso       1.00
      H187          H  0.1844280  0.2636511  0.1211906    0.00000       Uiso       1.00
      H188          H  0.1843313  0.0415088  0.1209843    0.00000       Uiso       1.00
      H189          H  0.1193383  0.0152491  0.8467407    0.00000       Uiso       1.00
      C384          C  0.1724519  0.3101899  0.1724540    0.00000       Uiso       1.00
      C385          C  0.1847643  0.2977187  0.1494344    0.00000       Uiso       1.00
      C386          C  0.1742698  0.2728874  0.1388672    0.00000       Uiso       1.00
      C387          C  0.1494320  0.2977183  0.1847660    0.00000       Uiso       1.00
      C388          C  0.1388881  0.2728882  0.1743547    0.00000       Uiso       1.00
      C389          C  0.1511670  0.2600254  0.1512237    0.00000       Uiso       1.00
      H190          H  0.1128464  0.0333734  0.8905526    0.00000       Uiso       1.00
      H191          H  0.8907056  0.0331675  0.1123898    0.00000       Uiso       1.00
      C390          C  0.0771776  0.0771785  0.0771787    0.00000       Uiso       1.00
      H192          H  0.1391092  0.3076199  0.2035315    0.00000       Uiso       1.00
       F61          F  0.1359369  0.0345700  0.2092902    0.00000       Uiso       1.00
       F62          F  0.2092916  0.3106606  0.1359427    0.00000       Uiso       1.00
       F63          F  0.1197863  0.9450675  0.8437001    0.00000       Uiso       1.00
       F64          F  0.8436964  0.0184162  0.1197857    0.00000       Uiso       1.00
      C391          C  0.1401935  0.0468158  0.1400280    0.00000       Uiso       1.00
      C392          C  0.1155703  0.0355082  0.1427770    0.00000       Uiso       1.00
      C393          C  0.1052907  0.0397621  0.1324127    0.00000       Uiso       1.00
      C394          C  0.1542001  0.0625068  0.1265619    0.00000       Uiso       1.00
      C395          C  0.1439254  0.0667804  0.1162179    0.00000       Uiso       1.00
      C396          C  0.1192904  0.0554788  0.1189569    0.00000       Uiso       1.00
      H193          H  0.9720525  0.9991381  0.0749601    0.00000       Uiso       1.00
      H194          H  0.1239626  0.0197410  0.9637511    0.00000       Uiso       1.00
      H195          H  0.1730894  0.0719030  0.1244179    0.00000       Uiso       1.00
      C397          C  0.9209483  0.0141612  0.1075420    0.00000       Uiso       1.00
      C398          C  0.9360998  0.0001557  0.0918490    0.00000       Uiso       1.00
      C399          C  0.9609923  0.0104306  0.0875750    0.00000       Uiso       1.00
      C400          C  0.9315142  0.0387838  0.1188514    0.00000       Uiso       1.00
      C401          C  0.9564125  0.0490636  0.1145972    0.00000       Uiso       1.00
      C402          C  0.9715859  0.0350652  0.0988787    0.00000       Uiso       1.00
      H196          H  0.0863784  0.0304155  0.1346384    0.00000       Uiso       1.00
      H197          H  0.1064805  0.1823016  0.1552177    0.00000       Uiso       1.00
      H198          H  0.9287516  0.9812680  0.0824508    0.00000       Uiso       1.00
      C403          C  0.1075412  0.0143299  0.9209517    0.00000       Uiso       1.00
      C404          C  0.0918419  0.0277868  0.9361037    0.00000       Uiso       1.00
      C405          C  0.0875694  0.0381311  0.9609960    0.00000       Uiso       1.00
      C406          C  0.1188582  0.0115908  0.9315160    0.00000       Uiso       1.00
      C407          C  0.1146066  0.0219568  0.9564133    0.00000       Uiso       1.00
      C408          C  0.0988815  0.0354033  0.9715876    0.00000       Uiso       1.00
      H199          H  0.1346187  0.1906086  0.0863869    0.00000       Uiso       1.00
      H200          H  0.1552198  0.0793914  0.1064756    0.00000       Uiso       1.00
      H201          H  0.0824395  0.0299235  0.9287558    0.00000       Uiso       1.00
      C409          C  0.1400263  0.2334080  0.1401979    0.00000       Uiso       1.00
      C410          C  0.1427670  0.2228429  0.1155770    0.00000       Uiso       1.00
      C411          C  0.1324000  0.1979455  0.1052971    0.00000       Uiso       1.00
      C412          C  0.1265658  0.2182562  0.1542026    0.00000       Uiso       1.00
      C413          C  0.1162201  0.1933638  0.1439271    0.00000       Uiso       1.00
      C414          C  0.1189498  0.1827712  0.1192950    0.00000       Uiso       1.00
      H202          H  0.0749524  0.0478665  0.9720587    0.00000       Uiso       1.00
      H203          H  0.9637541  0.0679754  0.1239435    0.00000       Uiso       1.00
      H204          H  0.1244269  0.2256042  0.1730902    0.00000       Uiso       1.00
       F65          F  0.1000352  0.0182851  0.1563437    0.00000       Uiso       1.00
       F66          F  0.1563269  0.2380997  0.1000448    0.00000       Uiso       1.00
       F67          F  0.1360911  0.9980351  0.9162585    0.00000       Uiso       1.00
       F68          F  0.9162586  0.0543177  0.1360755    0.00000       Uiso       1.00
      C415          C  0.1082638  0.0601769  0.1079954    0.00000       Uiso       1.00
      C416          C  0.0850527  0.0618772  0.1201596    0.00000       Uiso       1.00
      C417          C  0.0749355  0.0667448  0.1101620    0.00000       Uiso       1.00
      C418          C  0.1210500  0.0636400  0.0855406    0.00000       Uiso       1.00
      C419          C  0.1109358  0.0685226  0.0755619    0.00000       Uiso       1.00
      C420          C  0.0872997  0.0693599  0.0872206    0.00000       Uiso       1.00
      H205          H  0.0457950  0.0325410  0.0824171    0.00000       Uiso       1.00
      H206          H  0.0853905  0.0336336  0.0450989    0.00000       Uiso       1.00
      H207          H  0.1389949  0.0625984  0.0756083    0.00000       Uiso       1.00
      C421          C  0.9982722  0.0460928  0.0941815    0.00000       Uiso       1.00
      C422          C  0.0114031  0.0333063  0.0907179    0.00000       Uiso       1.00
      C423          C  0.0363797  0.0434196  0.0858337    0.00000       Uiso       1.00
      C424          C  0.0110190  0.0693042  0.0924818    0.00000       Uiso       1.00
      C425          C  0.0360023  0.0794201  0.0876127    0.00000       Uiso       1.00
      C426          C  0.0491949  0.0670554  0.0849961    0.00000       Uiso       1.00
      H208          H  0.0574998  0.0689721  0.1207275    0.00000       Uiso       1.00
      H209          H  0.0586838  0.1085588  0.1218231    0.00000       Uiso       1.00
      H210          H  0.0023456  0.0153607  0.0917583    0.00000       Uiso       1.00
      C427          C  0.0941834  0.0463655  0.9982733    0.00000       Uiso       1.00
      C428          C  0.0907181  0.0688203  0.0114063    0.00000       Uiso       1.00
      C429          C  0.0858338  0.0787977  0.0363817    0.00000       Uiso       1.00
      C430          C  0.0924823  0.0342016  0.0110201    0.00000       Uiso       1.00
      C431          C  0.0876143  0.0441982  0.0360024    0.00000       Uiso       1.00
      C432          C  0.0849978  0.0671387  0.0491953    0.00000       Uiso       1.00
      H211          H  0.1207189  0.1092577  0.0575022    0.00000       Uiso       1.00
      H212          H  0.1218139  0.0719332  0.0586817    0.00000       Uiso       1.00
      H213          H  0.0917603  0.0787531  0.0023523    0.00000       Uiso       1.00
      C433          C  0.1079873  0.1560846  0.1082696    0.00000       Uiso       1.00
      C434          C  0.1201511  0.1433392  0.0850576    0.00000       Uiso       1.00
      C435          C  0.1101558  0.1183559  0.0749396    0.00000       Uiso       1.00
      C436          C  0.0855352  0.1429502  0.1210578    0.00000       Uiso       1.00
      C437          C  0.0755597  0.1179738  0.1109428    0.00000       Uiso       1.00
      C438          C  0.0872175  0.1051610  0.0873046    0.00000       Uiso       1.00
      H214          H  0.0824211  0.0956768  0.0457938    0.00000       Uiso       1.00
      H215          H  0.0451028  0.0968548  0.0853825    0.00000       Uiso       1.00
      H216          H  0.0756021  0.1520015  0.1390044    0.00000       Uiso       1.00
       F69          F  0.0711511  0.0595966  0.1445273    0.00000       Uiso       1.00
       F70          F  0.1445146  0.1560921  0.0711553    0.00000       Uiso       1.00
       F71          F  0.0947673  0.0098343  0.9982682    0.00000       Uiso       1.00
       F72          F  0.9982737  0.0832049  0.0947592    0.00000       Uiso       1.00
      C439          C  0.6146869  0.7960413  0.6344988    0.00000       Uiso       1.00
      C440          C  0.6136051  0.8166336  0.6549410    0.00000       Uiso       1.00
      C441          C  0.5922452  0.8172880  0.6745610    0.00000       Uiso       1.00
      C442          C  0.5918180  0.8376403  0.6953512    0.00000       Uiso       1.00
      C443          C  0.6130926  0.8573259  0.6975322    0.00000       Uiso       1.00
      C444          C  0.6344998  0.8561286  0.6776682    0.00000       Uiso       1.00
      C445          C  0.6348274  0.8368874  0.6557426    0.00000       Uiso       1.00
        O1          O  0.5958576  0.7744480  0.6312183    0.00000       Uiso       1.00
      H217          H  0.5758456  0.8019174  0.6736867    0.00000       Uiso       1.00
      H218          H  0.5747136  0.8375522  0.7096599    0.00000       Uiso       1.00
      H219          H  0.6513392  0.8695077  0.6797298    0.00000       Uiso       1.00
      C446          C  0.7811103  0.9427131  0.6146857    0.00000       Uiso       1.00
      C447          C  0.7605113  0.9222760  0.6136011    0.00000       Uiso       1.00
      C448          C  0.7598561  0.9026481  0.5922461    0.00000       Uiso       1.00
      C449          C  0.7395037  0.8818569  0.5918249    0.00000       Uiso       1.00
      C450          C  0.7198207  0.8796792  0.6131012    0.00000       Uiso       1.00
      C451          C  0.7210165  0.8995576  0.6345003    0.00000       Uiso       1.00
      C452          C  0.7402564  0.9214838  0.6348202    0.00000       Uiso       1.00
        O2          O  0.8027127  0.9459764  0.5958629    0.00000       Uiso       1.00
      H220          H  0.7752285  0.9035096  0.5758480    0.00000       Uiso       1.00
      H221          H  0.7395955  0.8675430  0.5747236    0.00000       Uiso       1.00
      H222          H  0.7076449  0.8975098  0.6513439    0.00000       Uiso       1.00
      C453          C  0.6344691  0.9624878  0.7811219    0.00000       Uiso       1.00
      C454          C  0.6548963  0.9635775  0.7605199    0.00000       Uiso       1.00
      C455          C  0.6745057  0.9849439  0.7598614    0.00000       Uiso       1.00
      C456          C  0.6952904  0.9853806  0.7395014    0.00000       Uiso       1.00
      C457          C  0.6974738  0.9641079  0.7198130    0.00000       Uiso       1.00
      C458          C  0.6776120  0.9426950  0.7210107    0.00000       Uiso       1.00
      C459          C  0.6556944  0.9423580  0.7402651    0.00000       Uiso       1.00
        O3          O  0.6311958  0.9813182  0.8027134    0.00000       Uiso       1.00
      H223          H  0.6736264  0.0013358  0.7752425    0.00000       Uiso       1.00
      H224          H  0.7095951  0.0024871  0.7395900    0.00000       Uiso       1.00
      H225          H  0.6796716  0.9258571  0.7076263    0.00000       Uiso       1.00
      C460          C  0.6155710  0.9414532  0.7821003    0.00000       Uiso       1.00
      C461          C  0.6151192  0.9204044  0.7620739    0.00000       Uiso       1.00
      C462          C  0.5954942  0.8990808  0.7629832    0.00000       Uiso       1.00
      C463          C  0.5949827  0.8784474  0.7424764    0.00000       Uiso       1.00
      C464          C  0.6134863  0.8790509  0.7201853    0.00000       Uiso       1.00
      C465          C  0.6328299  0.9008970  0.7195627    0.00000       Uiso       1.00
      C466          C  0.6348904  0.9210745  0.7404752    0.00000       Uiso       1.00
        O4          O  0.5975603  0.9439734  0.8044066    0.00000       Uiso       1.00
      H226          H  0.5805660  0.8984591  0.7797219    0.00000       Uiso       1.00
      H227          H  0.5798563  0.8622198  0.7443527    0.00000       Uiso       1.00
      H228          H  0.6457052  0.9027303  0.7024876    0.00000       Uiso       1.00
      C467          C  0.7820745  0.9616297  0.6357120    0.00000       Uiso       1.00
      C468          C  0.7620394  0.9620879  0.6567534    0.00000       Uiso       1.00
      C469          C  0.7629287  0.9817334  0.6780661    0.00000       Uiso       1.00
      C470          C  0.7424150  0.9822453  0.6986907    0.00000       Uiso       1.00
      C471          C  0.7201337  0.9637177  0.6980931    0.00000       Uiso       1.00
      C472          C  0.7195318  0.9443558  0.6762561    0.00000       Uiso       1.00
      C473          C  0.7404520  0.9423013  0.6560891    0.00000       Uiso       1.00
        O5          O  0.8043779  0.9796437  0.6331913    0.00000       Uiso       1.00
      H229          H  0.7796614  0.9966739  0.6786894    0.00000       Uiso       1.00
      H230          H  0.7442834  0.9973904  0.7149090    0.00000       Uiso       1.00
      H231          H  0.7024662  0.9314612  0.6744111    0.00000       Uiso       1.00
      C474          C  0.6357167  0.7950801  0.6155843    0.00000       Uiso       1.00
      C475          C  0.6567599  0.8151108  0.6151363    0.00000       Uiso       1.00
      C476          C  0.6780680  0.8142210  0.5954879    0.00000       Uiso       1.00
      C477          C  0.6986936  0.8347335  0.5949710    0.00000       Uiso       1.00
      C478          C  0.6981027  0.8570152  0.6135050    0.00000       Uiso       1.00
      C479          C  0.6762697  0.8576153  0.6328781    0.00000       Uiso       1.00
      C480          C  0.6560995  0.8366944  0.6349289    0.00000       Uiso       1.00
        O6          O  0.6331941  0.7727867  0.5975557    0.00000       Uiso       1.00
      H232          H  0.6786819  0.7974871  0.5805460    0.00000       Uiso       1.00
      H233          H  0.7149049  0.8328635  0.5798157    0.00000       Uiso       1.00
      H234          H  0.6744291  0.8746819  0.6457815    0.00000       Uiso       1.00
        B1          B  0.6078218  0.7598202  0.6076921    0.00000       Uiso       1.00
        B2          B  0.8173496  0.9694966  0.6078246    0.00000       Uiso       1.00
        B3          B  0.6076894  0.9693518  0.8173605    0.00000       Uiso       1.00
      C481          C  0.6344948  0.4531407  0.6146845    0.00000       Uiso       1.00
      C482          C  0.6549369  0.4519088  0.6136028    0.00000       Uiso       1.00
      C483          C  0.6745573  0.4495148  0.5922432    0.00000       Uiso       1.00
      C484          C  0.6953476  0.4495255  0.5918159    0.00000       Uiso       1.00
      C485          C  0.6975282  0.4532952  0.6130902    0.00000       Uiso       1.00
      C486          C  0.6776639  0.4560353  0.6344970    0.00000       Uiso       1.00
      C487          C  0.6557382  0.4536785  0.6348246    0.00000       Uiso       1.00
        O7          O  0.6312146  0.4526245  0.5958556    0.00000       Uiso       1.00
      H235          H  0.6736833  0.4476119  0.5758439    0.00000       Uiso       1.00
      H236          H  0.7096566  0.4468182  0.5747119    0.00000       Uiso       1.00
      H237          H  0.6797252  0.4615569  0.6513361    0.00000       Uiso       1.00
      C488          C  0.6146784  0.4530756  0.7811043    0.00000       Uiso       1.00
      C489          C  0.6135942  0.4518296  0.7605057    0.00000       Uiso       1.00
      C490          C  0.5922391  0.4494473  0.7598506    0.00000       Uiso       1.00
      C491          C  0.5918183  0.4494653  0.7394986    0.00000       Uiso       1.00
      C492          C  0.6130952  0.4532368  0.7198161    0.00000       Uiso       1.00
      C493          C  0.6344943  0.4559534  0.7210119    0.00000       Uiso       1.00
      C494          C  0.6348137  0.4535864  0.7402513    0.00000       Uiso       1.00
        O8          O  0.5958551  0.4525915  0.8027063    0.00000       Uiso       1.00
      H238          H  0.5758407  0.4475598  0.7752227    0.00000       Uiso       1.00
      H239          H  0.5747169  0.4467697  0.7395904    0.00000       Uiso       1.00
      H240          H  0.6513382  0.4614735  0.7076408    0.00000       Uiso       1.00
      C495          C  0.7811177  0.4530990  0.6344661    0.00000       Uiso       1.00
      C496          C  0.7605152  0.4518340  0.6548927    0.00000       Uiso       1.00
      C497          C  0.7598563  0.4494180  0.6745017    0.00000       Uiso       1.00
      C498          C  0.7394959  0.4494056  0.6952860    0.00000       Uiso       1.00
      C499          C  0.7198074  0.4531735  0.6974695    0.00000       Uiso       1.00
      C500          C  0.7210057  0.4559227  0.6776082    0.00000       Uiso       1.00
      C501          C  0.7402604  0.4535969  0.6556910    0.00000       Uiso       1.00
        O9          O  0.8027092  0.4525869  0.6311929    0.00000       Uiso       1.00
      H241          H  0.7752374  0.4475280  0.6736233    0.00000       Uiso       1.00
      H242          H  0.7395841  0.4466923  0.7095913    0.00000       Uiso       1.00
      H243          H  0.7076214  0.4614359  0.6796678    0.00000       Uiso       1.00
      C502          C  0.7820964  0.4562143  0.6155685    0.00000       Uiso       1.00
      C503          C  0.7620701  0.4567850  0.6151167    0.00000       Uiso       1.00
      C504          C  0.7629798  0.4593933  0.5954921    0.00000       Uiso       1.00
      C505          C  0.7424730  0.4590086  0.5949808    0.00000       Uiso       1.00
      C506          C  0.7201814  0.4546170  0.6134838    0.00000       Uiso       1.00
      C507          C  0.7195584  0.4514915  0.6328270    0.00000       Uiso       1.00
      C508          C  0.7404709  0.4542870  0.6348874    0.00000       Uiso       1.00
       O10          O  0.8044032  0.4579903  0.5975583    0.00000       Uiso       1.00
      H244          H  0.7797189  0.4618259  0.5805643    0.00000       Uiso       1.00
      H245          H  0.7443496  0.4619863  0.5798547    0.00000       Uiso       1.00
      H246          H  0.7024828  0.4454578  0.6457019    0.00000       Uiso       1.00
      C509          C  0.6357049  0.4561495  0.7820685    0.00000       Uiso       1.00
      C510          C  0.6567466  0.4566982  0.7620339    0.00000       Uiso       1.00
      C511          C  0.6780593  0.4592546  0.7629232    0.00000       Uiso       1.00
      C512          C  0.6986845  0.4588540  0.7424099    0.00000       Uiso       1.00
      C513          C  0.6980872  0.4545032  0.7201290    0.00000       Uiso       1.00
      C514          C  0.6762500  0.4514261  0.7195271    0.00000       Uiso       1.00
      C515          C  0.6560827  0.4542335  0.7404469    0.00000       Uiso       1.00
       O11          O  0.6331837  0.4579179  0.8043715    0.00000       Uiso       1.00
      H247          H  0.6786824  0.4616697  0.7796555    0.00000       Uiso       1.00
      H248          H  0.7149027  0.4617957  0.7442783    0.00000       Uiso       1.00
      H249          H  0.6744053  0.4454104  0.7024617    0.00000       Uiso       1.00
      C516          C  0.6155798  0.4562168  0.6357141    0.00000       Uiso       1.00
      C517          C  0.6151316  0.4567809  0.6567566    0.00000       Uiso       1.00
      C518          C  0.5954828  0.4593301  0.6780645    0.00000       Uiso       1.00
      C519          C  0.5949653  0.4589257  0.6986896    0.00000       Uiso       1.00
      C520          C  0.6134993  0.4545870  0.6980986    0.00000       Uiso       1.00
      C521          C  0.6328728  0.4515274  0.6762658    0.00000       Uiso       1.00
      C522          C  0.6349241  0.4543295  0.6560962    0.00000       Uiso       1.00
       O12          O  0.5975513  0.4579591  0.6331915    0.00000       Uiso       1.00
      H250          H  0.5805408  0.4617359  0.6786784    0.00000       Uiso       1.00
      H251          H  0.5798099  0.4618516  0.7149006    0.00000       Uiso       1.00
      H252          H  0.6457762  0.4455235  0.6744252    0.00000       Uiso       1.00
        B4          B  0.6076882  0.4556901  0.6078197    0.00000       Uiso       1.00
        B5          B  0.6078167  0.4556698  0.8173429    0.00000       Uiso       1.00
        B6          B  0.8173569  0.4556945  0.6076870    0.00000       Uiso       1.00
       Si1         Si  0.1942213  0.3829531  0.5716850    0.00000       Uiso       1.00
        B7          B  0.1857433  0.3369291  0.5426731    0.00000       Uiso       1.00
       O13          O  0.1743884  0.3549226  0.5614702    0.00000       Uiso       1.00
       O14          O  0.2222517  0.3809360  0.5614707    0.00000       Uiso       1.00
        B8          B  0.2402454  0.3914863  0.5426730    0.00000       Uiso       1.00
        B9          B  0.1856886  0.3914317  0.5426730    0.00000       Uiso       1.00
       O15          O  0.1962389  0.4027863  0.5614707    0.00000       Uiso       1.00
       O16          O  0.2089444  0.3426305  0.5241054    0.00000       Uiso       1.00
       O17          O  0.2345440  0.3904189  0.5241058    0.00000       Uiso       1.00
       O18          O  0.1867558  0.3682302  0.5241059    0.00000       Uiso       1.00
       Si2         Si  0.2135182  0.3636564  0.5137953    0.00000       Uiso       1.00
      H253          H  0.1854234  0.3917505  0.5980777    0.00000       Uiso       1.00
      H254          H  0.2223159  0.3548591  0.4874028    0.00000       Uiso       1.00
       Si3         Si  0.5716874  0.3829570  0.1942267    0.00000       Uiso       1.00
       B10          B  0.5426758  0.3914914  0.1857491    0.00000       Uiso       1.00
       O19          O  0.5614729  0.3809402  0.1743942    0.00000       Uiso       1.00
       O20          O  0.5614729  0.4027899  0.2222569    0.00000       Uiso       1.00
       B11          B  0.5426746  0.3914351  0.2402500    0.00000       Uiso       1.00
       B12          B  0.5426745  0.3369328  0.1856933    0.00000       Uiso       1.00
       O21          O  0.5614724  0.3549264  0.1962437    0.00000       Uiso       1.00
       O22          O  0.5241076  0.3904229  0.2089497    0.00000       Uiso       1.00
       O23          O  0.5241071  0.3682336  0.2345483    0.00000       Uiso       1.00
       O24          O  0.5241075  0.3426346  0.1867606    0.00000       Uiso       1.00
       Si4         Si  0.5137969  0.3636601  0.2135229    0.00000       Uiso       1.00
      H255          H  0.5980805  0.3917547  0.1854291    0.00000       Uiso       1.00
      H256          H  0.4874039  0.3548622  0.2223202    0.00000       Uiso       1.00
      C523          C  0.1240391  0.9624966  0.6345005    0.00000       Uiso       1.00
      C524          C  0.1252709  0.9635780  0.6549425    0.00000       Uiso       1.00
      C525          C  0.1276651  0.9849379  0.6745628    0.00000       Uiso       1.00
      C526          C  0.1276542  0.9853650  0.6953528    0.00000       Uiso       1.00
      C527          C  0.1238841  0.9640902  0.6975333    0.00000       Uiso       1.00
      C528          C  0.1211437  0.9426832  0.6776691    0.00000       Uiso       1.00
      C529          C  0.1235007  0.9423558  0.6557438    0.00000       Uiso       1.00
       O25          O  0.1245558  0.9813259  0.6312205    0.00000       Uiso       1.00
      H257          H  0.1295675  0.0013367  0.6736887    0.00000       Uiso       1.00
      H258          H  0.1303609  0.0024683  0.7096616    0.00000       Uiso       1.00
      H259          H  0.1156218  0.9258438  0.6797304    0.00000       Uiso       1.00
      C530          C  0.1241009  0.7960735  0.6146843    0.00000       Uiso       1.00
      C531          C  0.1253473  0.8166724  0.6136001    0.00000       Uiso       1.00
      C532          C  0.1277298  0.8173279  0.5922453    0.00000       Uiso       1.00
      C533          C  0.1277123  0.8376803  0.5918245    0.00000       Uiso       1.00
      C534          C  0.1239410  0.8573630  0.6131011    0.00000       Uiso       1.00
      C535          C  0.1212242  0.8561669  0.6345000    0.00000       Uiso       1.00
      C536          C  0.1235907  0.8369271  0.6348194    0.00000       Uiso       1.00
       O26          O  0.1245846  0.7744712  0.5958613    0.00000       Uiso       1.00
      H260          H  0.1296171  0.8019556  0.5758471    0.00000       Uiso       1.00
      H261          H  0.1304080  0.8375887  0.5747234    0.00000       Uiso       1.00
      H262          H  0.1157043  0.8695383  0.6513437    0.00000       Uiso       1.00
      C537          C  0.1240791  0.9427130  0.7811218    0.00000       Uiso       1.00
      C538          C  0.1253438  0.9222860  0.7605196    0.00000       Uiso       1.00
      C539          C  0.1277594  0.9026767  0.7598607    0.00000       Uiso       1.00
      C540          C  0.1277715  0.8818922  0.7395005    0.00000       Uiso       1.00
      C541          C  0.1240038  0.8797089  0.7198123    0.00000       Uiso       1.00
      C542          C  0.1212550  0.8995706  0.7210104    0.00000       Uiso       1.00
      C543          C  0.1235811  0.9214880  0.7402650    0.00000       Uiso       1.00
       O27          O  0.1245910  0.9459860  0.8027132    0.00000       Uiso       1.00
      H263          H  0.1296492  0.9035550  0.7752417    0.00000       Uiso       1.00
      H264          H  0.1304845  0.8675866  0.7395888    0.00000       Uiso       1.00
      H265          H  0.1157420  0.8975111  0.7076262    0.00000       Uiso       1.00
      C544          C  0.1209642  0.9616111  0.7821006    0.00000       Uiso       1.00
      C545          C  0.1203937  0.9620630  0.7620744    0.00000       Uiso       1.00
      C546          C  0.1177858  0.9816880  0.7629841    0.00000       Uiso       1.00
      C547          C  0.1181707  0.9821996  0.7424775    0.00000       Uiso       1.00
      C548          C  0.1225621  0.9636964  0.7201862    0.00000       Uiso       1.00
      C549          C  0.1256872  0.9443527  0.7195632    0.00000       Uiso       1.00
      C550          C  0.1228914  0.9422921  0.7404755    0.00000       Uiso       1.00
       O28          O  0.1191884  0.9796214  0.8044071    0.00000       Uiso       1.00
      H266          H  0.1153534  0.9966160  0.7797230    0.00000       Uiso       1.00
      H267          H  0.1151933  0.9973261  0.7443541    0.00000       Uiso       1.00
      H268          H  0.1317206  0.9314777  0.7024879    0.00000       Uiso       1.00
      C551          C  0.1210267  0.7951090  0.6357105    0.00000       Uiso       1.00
      C552          C  0.1204783  0.8151439  0.6567520    0.00000       Uiso       1.00
      C553          C  0.1179217  0.8142543  0.6780645    0.00000       Uiso       1.00
      C554          C  0.1183225  0.8347679  0.6986893    0.00000       Uiso       1.00
      C555          C  0.1226738  0.8570492  0.6980922    0.00000       Uiso       1.00
      C556          C  0.1257511  0.8576514  0.6762553    0.00000       Uiso       1.00
      C557          C  0.1229435  0.8367313  0.6560882    0.00000       Uiso       1.00
       O29          O  0.1192580  0.7728056  0.6331893    0.00000       Uiso       1.00
      H269          H  0.1155062  0.7975217  0.6786875    0.00000       Uiso       1.00
      H270          H  0.1153807  0.8328993  0.7149074    0.00000       Uiso       1.00
      H271          H  0.1317672  0.8747171  0.6744106    0.00000       Uiso       1.00
      C558          C  0.1209629  0.9414669  0.6155858    0.00000       Uiso       1.00
      C559          C  0.1203983  0.9204238  0.6151375    0.00000       Uiso       1.00
      C560          C  0.1178488  0.8991157  0.5954888    0.00000       Uiso       1.00
      C561          C  0.1182528  0.8784901  0.5949715    0.00000       Uiso       1.00
      C562          C  0.1225912  0.8790810  0.6135052    0.00000       Uiso       1.00
      C563          C  0.1256512  0.9009139  0.6328786    0.00000       Uiso       1.00
      C564          C  0.1228495  0.9210840  0.6349298    0.00000       Uiso       1.00
       O30          O  0.1192208  0.9439896  0.5975574    0.00000       Uiso       1.00
      H272          H  0.1154432  0.8985021  0.5805470    0.00000       Uiso       1.00
      H273          H  0.1153267  0.8622790  0.5798161    0.00000       Uiso       1.00
      H274          H  0.1316549  0.9027544  0.6457819    0.00000       Uiso       1.00
       B13          B  0.1214901  0.9693618  0.6076942    0.00000       Uiso       1.00
       B14          B  0.1215060  0.7598342  0.6078227    0.00000       Uiso       1.00
       B15          B  0.1214838  0.9694923  0.8173606    0.00000       Uiso       1.00
       Si5         Si  0.1942302  0.0055002  0.1942327    0.00000       Uiso       1.00
       B16          B  0.2402544  0.0345124  0.1857553    0.00000       Uiso       1.00
       O31          O  0.2222609  0.0157152  0.1744003    0.00000       Uiso       1.00
       O32          O  0.1962473  0.0157144  0.2222627    0.00000       Uiso       1.00
       B17          B  0.1856973  0.0345124  0.2402562    0.00000       Uiso       1.00
       B18          B  0.1857524  0.0345130  0.1857000    0.00000       Uiso       1.00
       O33          O  0.1743974  0.0157149  0.1962500    0.00000       Uiso       1.00
       O34          O  0.2345533  0.0530803  0.2089561    0.00000       Uiso       1.00
       O35          O  0.1867651  0.0530800  0.2345549    0.00000       Uiso       1.00
       O36          O  0.2089541  0.0530803  0.1867674    0.00000       Uiso       1.00
       Si6         Si  0.2135278  0.0633907  0.2135296    0.00000       Uiso       1.00
      H275          H  0.1854333  0.9791080  0.1854348    0.00000       Uiso       1.00
      H276          H  0.2223255  0.0897836  0.2223272    0.00000       Uiso       1.00
      C565          C  0.6146834  0.9426808  0.1240354    0.00000       Uiso       1.00
      C566          C  0.6136016  0.9222383  0.1252671    0.00000       Uiso       1.00
      C567          C  0.5922415  0.9026179  0.1276611    0.00000       Uiso       1.00
      C568          C  0.5918140  0.8818275  0.1276502    0.00000       Uiso       1.00
      C569          C  0.6130885  0.8796467  0.1238804    0.00000       Uiso       1.00
      C570          C  0.6344957  0.8995110  0.1211402    0.00000       Uiso       1.00
      C571          C  0.6348236  0.9214369  0.1234972    0.00000       Uiso       1.00
       O37          O  0.5958544  0.9459611  0.1245518    0.00000       Uiso       1.00
      H277          H  0.5758421  0.9034920  0.1295642    0.00000       Uiso       1.00
      H278          H  0.5747097  0.8675185  0.1303575    0.00000       Uiso       1.00
      H279          H  0.6513351  0.8974497  0.1156186    0.00000       Uiso       1.00
      C572          C  0.7811053  0.9624958  0.1240989    0.00000       Uiso       1.00
      C573          C  0.7605066  0.9635802  0.1253451    0.00000       Uiso       1.00
      C574          C  0.7598516  0.9849353  0.1277276    0.00000       Uiso       1.00
      C575          C  0.7394994  0.9853564  0.1277099    0.00000       Uiso       1.00
      C576          C  0.7198164  0.9640796  0.1239384    0.00000       Uiso       1.00
      C577          C  0.7210121  0.9426803  0.1212216    0.00000       Uiso       1.00
      C578          C  0.7402517  0.9423606  0.1235884    0.00000       Uiso       1.00
       O38          O  0.8027078  0.9813190  0.1245829    0.00000       Uiso       1.00
      H280          H  0.7752232  0.0013330  0.1296150    0.00000       Uiso       1.00
      H281          H  0.7395905  0.0024570  0.1304056    0.00000       Uiso       1.00
      H282          H  0.7076405  0.9258364  0.1157016    0.00000       Uiso       1.00
      C579          C  0.6344638  0.7960562  0.1240755    0.00000       Uiso       1.00
      C580          C  0.6548909  0.8166586  0.1253404    0.00000       Uiso       1.00
      C581          C  0.6745000  0.8173174  0.1277562    0.00000       Uiso       1.00
      C582          C  0.6952848  0.8376777  0.1277686    0.00000       Uiso       1.00
      C583          C  0.6974685  0.8573664  0.1240009    0.00000       Uiso       1.00
      C584          C  0.6776070  0.8561684  0.1212520    0.00000       Uiso       1.00
      C585          C  0.6556893  0.8369136  0.1235778    0.00000       Uiso       1.00
       O39          O  0.6311903  0.7744644  0.1245874    0.00000       Uiso       1.00
      H283          H  0.6736215  0.8019360  0.1296460    0.00000       Uiso       1.00
      H284          H  0.7095902  0.8375893  0.1304817    0.00000       Uiso       1.00
      H285          H  0.6796668  0.8695530  0.1157390    0.00000       Uiso       1.00
      C586          C  0.6155659  0.7950776  0.1209605    0.00000       Uiso       1.00
      C587          C  0.6151143  0.8151042  0.1203900    0.00000       Uiso       1.00
      C588          C  0.5954895  0.8141947  0.1177819    0.00000       Uiso       1.00
      C589          C  0.5949784  0.8347018  0.1181668    0.00000       Uiso       1.00
      C590          C  0.6134819  0.8569933  0.1225583    0.00000       Uiso       1.00
      C591          C  0.6328253  0.8576161  0.1256836    0.00000       Uiso       1.00
      C592          C  0.6348855  0.8367033  0.1228879    0.00000       Uiso       1.00
       O40          O  0.5975552  0.7727708  0.1191845    0.00000       Uiso       1.00
      H286          H  0.5805614  0.7974557  0.1153494    0.00000       Uiso       1.00
      H287          H  0.5798521  0.8328253  0.1151893    0.00000       Uiso       1.00
      H288          H  0.6457006  0.8746916  0.1317171    0.00000       Uiso       1.00
      C593          C  0.7820693  0.9414692  0.1210248    0.00000       Uiso       1.00
      C594          C  0.7620342  0.9204273  0.1204762    0.00000       Uiso       1.00
      C595          C  0.7629233  0.8991145  0.1179197    0.00000       Uiso       1.00
      C596          C  0.7424095  0.8784894  0.1183202    0.00000       Uiso       1.00
      C597          C  0.7201284  0.8790867  0.1226712    0.00000       Uiso       1.00
      C598          C  0.7195268  0.9009240  0.1257485    0.00000       Uiso       1.00
      C599          C  0.7404470  0.9210914  0.1229411    0.00000       Uiso       1.00
       O41          O  0.8043726  0.9439902  0.1192563    0.00000       Uiso       1.00
      H289          H  0.7796558  0.8984913  0.1155044    0.00000       Uiso       1.00
      H290          H  0.7442778  0.8622710  0.1153785    0.00000       Uiso       1.00
      H291          H  0.7024612  0.9027689  0.1317643    0.00000       Uiso       1.00
      C600          C  0.6357134  0.9615957  0.1209594    0.00000       Uiso       1.00
      C601          C  0.6567563  0.9620439  0.1203951    0.00000       Uiso       1.00
      C602          C  0.6780645  0.9816927  0.1178459    0.00000       Uiso       1.00
      C603          C  0.6986899  0.9822099  0.1182500    0.00000       Uiso       1.00
      C604          C  0.6980987  0.9636757  0.1225884    0.00000       Uiso       1.00
      C605          C  0.6762655  0.9443021  0.1256481    0.00000       Uiso       1.00
      C606          C  0.6560957  0.9422510  0.1228462    0.00000       Uiso       1.00
       O42          O  0.6331911  0.9796245  0.1192174    0.00000       Uiso       1.00
      H292          H  0.6786786  0.9966349  0.1154403    0.00000       Uiso       1.00
      H293          H  0.7149013  0.9973655  0.1153242    0.00000       Uiso       1.00
      H294          H  0.6744247  0.9313985  0.1316517    0.00000       Uiso       1.00
       B19          B  0.6078189  0.9694877  0.1214864    0.00000       Uiso       1.00
       B20          B  0.8173444  0.9693573  0.1215045    0.00000       Uiso       1.00
       B21          B  0.6076840  0.7598169  0.1214800    0.00000       Uiso       1.00
       Si7         Si  0.1942151  0.3829471  0.1942166    0.00000       Uiso       1.00
       B22          B  0.1857370  0.3914809  0.2402400    0.00000       Uiso       1.00
       O43          O  0.1743821  0.3809298  0.2222467    0.00000       Uiso       1.00
       O44          O  0.2222456  0.4027804  0.1962340    0.00000       Uiso       1.00
       B23          B  0.2402390  0.3914258  0.1856841    0.00000       Uiso       1.00
       B24          B  0.1856817  0.3369230  0.1857380    0.00000       Uiso       1.00
       O45          O  0.1962323  0.3549168  0.1743837    0.00000       Uiso       1.00
       O46          O  0.2089379  0.3904127  0.2345389    0.00000       Uiso       1.00
       O47          O  0.2345372  0.3682243  0.1867514    0.00000       Uiso       1.00
       O48          O  0.1867488  0.3426245  0.2089393    0.00000       Uiso       1.00
       Si8         Si  0.2135113  0.3636502  0.2135133    0.00000       Uiso       1.00
      H295          H  0.1854176  0.3917449  0.1854193    0.00000       Uiso       1.00
      H296          H  0.2223086  0.3548523  0.2223107    0.00000       Uiso       1.00
