data_69
_audit_creation_date              0000-00-00
_audit_creation_method            'LanYouShi'
_symmetry_space_group_name_H-M    'P1'
_cell_length_a                    68.1961975
_cell_length_b                    68.1961975
_cell_length_c                    68.1961975
_cell_angle_alpha                 119.9992981
_cell_angle_beta                  119.9992981
_cell_angle_gamma                 60.0000000
loop_
_atom_site_label
_atom_site_type_symbol
_atom_site_fract_x
_atom_site_fract_y
_atom_site_fract_z
_atom_site_U_iso_or_equiv
_atom_site_adp_type
_atom_site_occupancy
        C1          C  0.4047264  0.4047264  0.5424646    0.00000       Uiso       1.00
        C2          C  0.3924142  0.4277460  0.5407007    0.00000       Uiso       1.00
        C3          C  0.4029078  0.4383127  0.5369297    0.00000       Uiso       1.00
        C4          C  0.4277461  0.3924141  0.5407007    0.00000       Uiso       1.00
        C5          C  0.4382898  0.4028255  0.5368258    0.00000       Uiso       1.00
        C6          C  0.4260105  0.4259564  0.5348142    0.00000       Uiso       1.00
        H1          H  0.4643296  0.6866277  0.6071545    0.00000       Uiso       1.00
        H2          H  0.6864696  0.4647864  0.6072491    0.00000       Uiso       1.00
        H3          H  0.4380688  0.3736484  0.5421594    0.00000       Uiso       1.00
        C7          C  0.4575346  0.7330088  0.5952728    0.00000       Uiso       1.00
        C8          C  0.4592984  0.7205374  0.6075850    0.00000       Uiso       1.00
        C9          C  0.4631733  0.6957076  0.5971737    0.00000       Uiso       1.00
       C10          C  0.4592988  0.7205378  0.5722535    0.00000       Uiso       1.00
       C11          C  0.4630694  0.6957068  0.5616868    0.00000       Uiso       1.00
       C12          C  0.4651847  0.6828449  0.5740429    0.00000       Uiso       1.00
        H4          H  0.3927487  0.4559888  0.5352105    0.00000       Uiso       1.00
        H5          H  0.3928470  0.4561963  0.3133743    0.00000       Uiso       1.00
        H6          H  0.4578395  0.7304389  0.6263505    0.00000       Uiso       1.00
       C13          C  0.7330086  0.4575346  0.5952728    0.00000       Uiso       1.00
       C14          C  0.7205375  0.4592988  0.5722533    0.00000       Uiso       1.00
       C15          C  0.6957075  0.4631746  0.5617101    0.00000       Uiso       1.00
       C16          C  0.7205371  0.4592984  0.6075849    0.00000       Uiso       1.00
       C17          C  0.6957062  0.4630686  0.5970910    0.00000       Uiso       1.00
       C18          C  0.6828446  0.4651850  0.5739890    0.00000       Uiso       1.00
        H7          H  0.4559923  0.3927527  0.3135319    0.00000       Uiso       1.00
        H8          H  0.4561941  0.3928447  0.5356696    0.00000       Uiso       1.00
        H9          H  0.7304393  0.4578401  0.5619307    0.00000       Uiso       1.00
       C19          C  0.4047294  0.4047293  0.2669936    0.00000       Uiso       1.00
       C20          C  0.4277489  0.3924169  0.2794647    0.00000       Uiso       1.00
       C21          C  0.4383157  0.4029109  0.3042956    0.00000       Uiso       1.00
       C22          C  0.3924170  0.4277488  0.2794647    0.00000       Uiso       1.00
       C23          C  0.4028279  0.4382923  0.3042944    0.00000       Uiso       1.00
       C24          C  0.4259589  0.4260134  0.3171572    0.00000       Uiso       1.00
       H10          H  0.6866273  0.4643320  0.5438063    0.00000       Uiso       1.00
       H11          H  0.4647885  0.6864707  0.5440108    0.00000       Uiso       1.00
       C25          C  0.5000010  0.4999996  0.5000011    0.00000       Uiso       1.00
       H12          H  0.3736514  0.4380717  0.2695632    0.00000       Uiso       1.00
        F1          F  0.3678871  0.4412380  0.5426073    0.00000       Uiso       1.00
        F2          F  0.4412411  0.3678900  0.2665232    0.00000       Uiso       1.00
        F3          F  0.7334785  0.4573916  0.6321117    0.00000       Uiso       1.00
        F4          F  0.4573923  0.7334796  0.5587616    0.00000       Uiso       1.00
       C26          C  0.4371503  0.4369825  0.5303624    0.00000       Uiso       1.00
       C27          C  0.4344010  0.4616054  0.5416697    0.00000       Uiso       1.00
       C28          C  0.4447655  0.4718851  0.5374161    0.00000       Uiso       1.00
       C29          C  0.4506169  0.4229763  0.5146719    0.00000       Uiso       1.00
       C30          C  0.4609611  0.4332511  0.5103985    0.00000       Uiso       1.00
       C31          C  0.4582218  0.4578859  0.5216999    0.00000       Uiso       1.00
       H13          H  0.5022180  0.6051244  0.5780407    0.00000       Uiso       1.00
       H14          H  0.6134278  0.4532149  0.5574377    0.00000       Uiso       1.00
       H15          H  0.4527611  0.4040872  0.5052760    0.00000       Uiso       1.00
       C32          C  0.4696361  0.6562276  0.5630167    0.00000       Uiso       1.00
       C33          C  0.4853289  0.6410761  0.5770220    0.00000       Uiso       1.00
       C34          C  0.4896032  0.6161838  0.5667474    0.00000       Uiso       1.00
       C35          C  0.4583270  0.6456622  0.5383945    0.00000       Uiso       1.00
       C36          C  0.4625815  0.6207642  0.5281150    0.00000       Uiso       1.00
       C37          C  0.4782999  0.6055906  0.5421132    0.00000       Uiso       1.00
       H16          H  0.4425397  0.4907972  0.5467625    0.00000       Uiso       1.00
       H17          H  0.4219632  0.4706981  0.3948793    0.00000       Uiso       1.00
       H18          H  0.4947268  0.6484247  0.5959103    0.00000       Uiso       1.00
       C38          C  0.6562275  0.4696366  0.5628492    0.00000       Uiso       1.00
       C39          C  0.6410756  0.4853360  0.5493923    0.00000       Uiso       1.00
       C40          C  0.6161833  0.4896085  0.5390480    0.00000       Uiso       1.00
       C41          C  0.6456630  0.4583194  0.5655880    0.00000       Uiso       1.00
       C42          C  0.6207656  0.4625709  0.5552220    0.00000       Uiso       1.00
       C43          C  0.6055915  0.4782962  0.5417756    0.00000       Uiso       1.00
       H19          H  0.4907950  0.4425608  0.3865732    0.00000       Uiso       1.00
       H20          H  0.4707038  0.4219571  0.4977880    0.00000       Uiso       1.00
       H21          H  0.6484237  0.4947385  0.5472558    0.00000       Uiso       1.00
       C44          C  0.4369843  0.4371536  0.3437742    0.00000       Uiso       1.00
       C45          C  0.4616052  0.4344129  0.3543393    0.00000       Uiso       1.00
       C46          C  0.4718847  0.4447795  0.3792363    0.00000       Uiso       1.00
       C47          C  0.4229791  0.4506136  0.3589255    0.00000       Uiso       1.00
       C48          C  0.4332542  0.4609589  0.3838175    0.00000       Uiso       1.00
       C49          C  0.4578863  0.4582292  0.3944101    0.00000       Uiso       1.00
       H22          H  0.6051207  0.5022255  0.5293126    0.00000       Uiso       1.00
       H23          H  0.4532354  0.6134229  0.5092034    0.00000       Uiso       1.00
       H24          H  0.4040914  0.4527525  0.3515774    0.00000       Uiso       1.00
        F5          F  0.4208339  0.4771400  0.5588924    0.00000       Uiso       1.00
        F6          F  0.4771379  0.4208535  0.3390830    0.00000       Uiso       1.00
        F7          F  0.6609204  0.4410872  0.5791445    0.00000       Uiso       1.00
        F8          F  0.4411030  0.6609181  0.5228607    0.00000       Uiso       1.00
       C50          C  0.4691835  0.4689127  0.5170019    0.00000       Uiso       1.00
       C51          C  0.4570192  0.4921238  0.5153016    0.00000       Uiso       1.00
       C52          C  0.4670171  0.5022411  0.5104342    0.00000       Uiso       1.00
       C53          C  0.4916387  0.4561268  0.5135391    0.00000       Uiso       1.00
       C54          C  0.5016176  0.4662412  0.5086569    0.00000       Uiso       1.00
       C55          C  0.4899588  0.4898772  0.5078194    0.00000       Uiso       1.00
       H25          H  0.4947616  0.5313811  0.5446376    0.00000       Uiso       1.00
       H26          H  0.5320802  0.4917861  0.5435454    0.00000       Uiso       1.00
       H27          H  0.5015711  0.4381819  0.5145808    0.00000       Uiso       1.00
       C56          C  0.4829973  0.5789046  0.5310859    0.00000       Uiso       1.00
       C57          C  0.4864607  0.5657729  0.5438721    0.00000       Uiso       1.00
       C58          C  0.4913451  0.5407966  0.5337592    0.00000       Uiso       1.00
       C59          C  0.4846976  0.5661578  0.5078750    0.00000       Uiso       1.00
       C60          C  0.4895669  0.5411748  0.4977593    0.00000       Uiso       1.00
       C61          C  0.4921833  0.5279819  0.5101238    0.00000       Uiso       1.00
       H28          H  0.4564515  0.5196767  0.5082068    0.00000       Uiso       1.00
       H29          H  0.4553567  0.5184936  0.4686209    0.00000       Uiso       1.00
       H30          H  0.4854198  0.5748301  0.5618174    0.00000       Uiso       1.00
       C62          C  0.5789058  0.4829943  0.5308134    0.00000       Uiso       1.00
       C63          C  0.5657739  0.4864595  0.5083597    0.00000       Uiso       1.00
       C64          C  0.5407984  0.4913437  0.4983824    0.00000       Uiso       1.00
       C65          C  0.5661593  0.4846945  0.5429778    0.00000       Uiso       1.00
       C66          C  0.5411770  0.4895625  0.5329811    0.00000       Uiso       1.00
       C67          C  0.5279844  0.4921794  0.5100409    0.00000       Uiso       1.00
       H31          H  0.5196783  0.4564591  0.4679227    0.00000       Uiso       1.00
       H32          H  0.5184981  0.4553633  0.5052464    0.00000       Uiso       1.00
       H33          H  0.5748281  0.4854175  0.4984272    0.00000       Uiso       1.00
       C68          C  0.4689113  0.4691912  0.4210962    0.00000       Uiso       1.00
       C69          C  0.4921233  0.4570274  0.4338416    0.00000       Uiso       1.00
       C70          C  0.5022409  0.4670222  0.4588245    0.00000       Uiso       1.00
       C71          C  0.4561227  0.4916430  0.4342302    0.00000       Uiso       1.00
       C72          C  0.4662373  0.5016180  0.4592062    0.00000       Uiso       1.00
       C73          C  0.4898755  0.4899601  0.4720191    0.00000       Uiso       1.00
       H34          H  0.5313866  0.4947568  0.4815034    0.00000       Uiso       1.00
       H35          H  0.4917975  0.5320746  0.4803251    0.00000       Uiso       1.00
       H36          H  0.4381761  0.5015761  0.4251789    0.00000       Uiso       1.00
        F9          F  0.4326512  0.5060250  0.5175819    0.00000       Uiso       1.00
       F10          F  0.5060260  0.4326642  0.4210891    0.00000       Uiso       1.00
       F11          F  0.5789100  0.4824096  0.5673438    0.00000       Uiso       1.00
       F12          F  0.4824203  0.5789040  0.4939745    0.00000       Uiso       1.00
       C74          C  0.0347169  0.4047292  0.2669935    0.00000       Uiso       1.00
       C75          C  0.0364807  0.4277487  0.2794646    0.00000       Uiso       1.00
       C76          C  0.0402514  0.4383151  0.3042955    0.00000       Uiso       1.00
       C77          C  0.0364807  0.3924168  0.2794647    0.00000       Uiso       1.00
       C78          C  0.0403554  0.4028279  0.3042943    0.00000       Uiso       1.00
       C79          C  0.0423668  0.4259586  0.3171573    0.00000       Uiso       1.00
       H37          H  0.9700235  0.6866283  0.5438058    0.00000       Uiso       1.00
       H38          H  0.9699290  0.4647870  0.5440099    0.00000       Uiso       1.00
       H39          H  0.0350221  0.3736513  0.2695631    0.00000       Uiso       1.00
       C80          C  0.9819047  0.7330088  0.5952728    0.00000       Uiso       1.00
       C81          C  0.9695927  0.7205377  0.5722535    0.00000       Uiso       1.00
       C82          C  0.9800043  0.6957079  0.5617099    0.00000       Uiso       1.00
       C83          C  0.0049241  0.7205374  0.6075851    0.00000       Uiso       1.00
       C84          C  0.0154909  0.6957064  0.5970913    0.00000       Uiso       1.00
       C85          C  0.0031349  0.6828449  0.5739889    0.00000       Uiso       1.00
       H40          H  0.0419705  0.4559911  0.3135316    0.00000       Uiso       1.00
       H41          H  0.2638067  0.4561940  0.5356690    0.00000       Uiso       1.00
       H42          H  0.9508271  0.7304395  0.5619308    0.00000       Uiso       1.00
       C86          C  0.9819049  0.4575346  0.5952728    0.00000       Uiso       1.00
       C87          C  0.0049242  0.4592984  0.6075849    0.00000       Uiso       1.00
       C88          C  0.0154677  0.4631742  0.5971740    0.00000       Uiso       1.00
       C89          C  0.9695929  0.4592988  0.5722533    0.00000       Uiso       1.00
       C90          C  0.9800870  0.4630689  0.5616865    0.00000       Uiso       1.00
       C91          C  0.0031890  0.4651850  0.5740431    0.00000       Uiso       1.00
       H43          H  0.2636491  0.3927503  0.5352131    0.00000       Uiso       1.00
       H44          H  0.0415115  0.3928470  0.3133740    0.00000       Uiso       1.00
       H45          H  0.0152467  0.4578395  0.6263504    0.00000       Uiso       1.00
       C92          C  0.3101879  0.4047264  0.5424646    0.00000       Uiso       1.00
       C93          C  0.2977166  0.3924141  0.5407007    0.00000       Uiso       1.00
       C94          C  0.2728856  0.4029085  0.5369310    0.00000       Uiso       1.00
       C95          C  0.2977166  0.4277460  0.5407007    0.00000       Uiso       1.00
       C96          C  0.2728868  0.4382898  0.5368257    0.00000       Uiso       1.00
       C97          C  0.2600239  0.4260111  0.5348151    0.00000       Uiso       1.00
       H46          H  0.0333715  0.4643313  0.6071547    0.00000       Uiso       1.00
       H47          H  0.0331670  0.6864700  0.6072501    0.00000       Uiso       1.00
       C98          C  0.0771784  0.4999996  0.5000018    0.00000       Uiso       1.00
       H48          H  0.3076183  0.4380688  0.5421594    0.00000       Uiso       1.00
       F13          F  0.0345742  0.4412409  0.2665231    0.00000       Uiso       1.00
       F14          F  0.3106583  0.3678870  0.5426073    0.00000       Uiso       1.00
       F15          F  0.9450659  0.4573923  0.5587615    0.00000       Uiso       1.00
       F16          F  0.0184158  0.7334788  0.6321118    0.00000       Uiso       1.00
       C99          C  0.0468184  0.4369844  0.3437746    0.00000       Uiso       1.00
      C100          C  0.0355108  0.4616073  0.3543410    0.00000       Uiso       1.00
      C101          C  0.0397642  0.4718868  0.3792386    0.00000       Uiso       1.00
      C102          C  0.0625089  0.4229779  0.3589252    0.00000       Uiso       1.00
      C103          C  0.0667821  0.4332525  0.3838174    0.00000       Uiso       1.00
      C104          C  0.0554805  0.4578872  0.3944115    0.00000       Uiso       1.00
       H49          H  0.9991378  0.6051248  0.5293045    0.00000       Uiso       1.00
       H50          H  0.0197411  0.4532154  0.5092078    0.00000       Uiso       1.00
       H51          H  0.0719050  0.4040888  0.3515763    0.00000       Uiso       1.00
      C105          C  0.0141614  0.6562276  0.5628493    0.00000       Uiso       1.00
      C106          C  0.0001561  0.6410764  0.5493855    0.00000       Uiso       1.00
      C107          C  0.0104309  0.6161840  0.5390422    0.00000       Uiso       1.00
      C108          C  0.0387839  0.6456619  0.5655968    0.00000       Uiso       1.00
      C109          C  0.0490636  0.6207639  0.5552328    0.00000       Uiso       1.00
      C110          C  0.0350653  0.6055906  0.5417796    0.00000       Uiso       1.00
       H52          H  0.0304177  0.4907989  0.3865785    0.00000       Uiso       1.00
       H53          H  0.1823013  0.4706970  0.4977834    0.00000       Uiso       1.00
       H54          H  0.9812679  0.6484253  0.5472441    0.00000       Uiso       1.00
      C111          C  0.0143290  0.4696366  0.5630173    0.00000       Uiso       1.00
      C112          C  0.0277858  0.4853357  0.5770213    0.00000       Uiso       1.00
      C113          C  0.0381304  0.4896082  0.5667458    0.00000       Uiso       1.00
      C114          C  0.0115904  0.4583197  0.5383971    0.00000       Uiso       1.00
      C115          C  0.0219566  0.4625712  0.5281172    0.00000       Uiso       1.00
      C116          C  0.0354030  0.4782961  0.5421144    0.00000       Uiso       1.00
       H55          H  0.1906070  0.4425591  0.5467832    0.00000       Uiso       1.00
       H56          H  0.0793927  0.4219582  0.3948764    0.00000       Uiso       1.00
       H57          H  0.0299222  0.4947380  0.5959082    0.00000       Uiso       1.00
      C117          C  0.2334066  0.4371516  0.5303641    0.00000       Uiso       1.00
      C118          C  0.2228413  0.4344109  0.5416791    0.00000       Uiso       1.00
      C119          C  0.1979441  0.4447778  0.5374286    0.00000       Uiso       1.00
      C120          C  0.2182553  0.4506119  0.5146679    0.00000       Uiso       1.00
      C121          C  0.1933631  0.4609576  0.5103965    0.00000       Uiso       1.00
      C122          C  0.1827703  0.4582278  0.5217064    0.00000       Uiso       1.00
       H58          H  0.0478657  0.5022250  0.5780354    0.00000       Uiso       1.00
       H59          H  0.0679753  0.6134223  0.5574566    0.00000       Uiso       1.00
       H60          H  0.2256036  0.4527508  0.5052672    0.00000       Uiso       1.00
       F17          F  0.0182882  0.4771422  0.3390861    0.00000       Uiso       1.00
       F18          F  0.2380976  0.4208512  0.5589085    0.00000       Uiso       1.00
       F19          F  0.9980341  0.4410878  0.5228661    0.00000       Uiso       1.00
       F20          F  0.0543176  0.6609175  0.5791621    0.00000       Uiso       1.00
      C123          C  0.0601782  0.4689136  0.4210976    0.00000       Uiso       1.00
      C124          C  0.0618784  0.4921246  0.4338446    0.00000       Uiso       1.00
      C125          C  0.0667456  0.5022416  0.4588269    0.00000       Uiso       1.00
      C126          C  0.0636409  0.4561276  0.4342295    0.00000       Uiso       1.00
      C127          C  0.0685230  0.4662417  0.4592048    0.00000       Uiso       1.00
      C128          C  0.0693603  0.4898775  0.4720193    0.00000       Uiso       1.00
       H61          H  0.0325416  0.5313818  0.4815082    0.00000       Uiso       1.00
       H62          H  0.0336338  0.4917867  0.4803239    0.00000       Uiso       1.00
       H63          H  0.0625993  0.4381828  0.4251755    0.00000       Uiso       1.00
      C129          C  0.0460929  0.5789046  0.5308184    0.00000       Uiso       1.00
      C130          C  0.0333067  0.5657733  0.5083642    0.00000       Uiso       1.00
      C131          C  0.0434199  0.5407970  0.4983853    0.00000       Uiso       1.00
      C132          C  0.0693039  0.5661575  0.5429823    0.00000       Uiso       1.00
      C133          C  0.0794198  0.5411744  0.5329843    0.00000       Uiso       1.00
      C134          C  0.0670554  0.5279819  0.5100438    0.00000       Uiso       1.00
       H64          H  0.0689729  0.5196772  0.4679242    0.00000       Uiso       1.00
       H65          H  0.1085588  0.5184932  0.5052314    0.00000       Uiso       1.00
       H66          H  0.0153614  0.5748308  0.4984356    0.00000       Uiso       1.00
      C135          C  0.0463654  0.4829943  0.5310890    0.00000       Uiso       1.00
      C136          C  0.0688192  0.4864591  0.5438756    0.00000       Uiso       1.00
      C137          C  0.0787968  0.4913433  0.5337617    0.00000       Uiso       1.00
      C138          C  0.0342012  0.4846949  0.5078788    0.00000       Uiso       1.00
      C139          C  0.0441980  0.4895628  0.4977610    0.00000       Uiso       1.00
      C140          C  0.0671383  0.4921794  0.5101252    0.00000       Uiso       1.00
       H67          H  0.1092570  0.4564587  0.5082167    0.00000       Uiso       1.00
       H68          H  0.0719333  0.4553637  0.4686177    0.00000       Uiso       1.00
       H69          H  0.0787516  0.4854169  0.5618202    0.00000       Uiso       1.00
      C141          C  0.1560839  0.4691902  0.5170076    0.00000       Uiso       1.00
      C142          C  0.1433384  0.4570265  0.5153106    0.00000       Uiso       1.00
      C143          C  0.1183553  0.4670216  0.5104404    0.00000       Uiso       1.00
      C144          C  0.1429498  0.4916421  0.5135369    0.00000       Uiso       1.00
      C145          C  0.1179736  0.5016174  0.5086509    0.00000       Uiso       1.00
      C146          C  0.1051606  0.4899597  0.5078185    0.00000       Uiso       1.00
       H70          H  0.0956757  0.4947561  0.5446416    0.00000       Uiso       1.00
       H71          H  0.0968541  0.5320740  0.5435487    0.00000       Uiso       1.00
       H72          H  0.1520011  0.5015751  0.5145746    0.00000       Uiso       1.00
       F21          F  0.0595982  0.5060260  0.4210977    0.00000       Uiso       1.00
       F22          F  0.1560910  0.4326632  0.5176025    0.00000       Uiso       1.00
       F23          F  0.0098350  0.4824103  0.4939790    0.00000       Uiso       1.00
       F24          F  0.0832042  0.5789031  0.5673513    0.00000       Uiso       1.00
      C147          C  0.3101817  0.4047201  0.1724458    0.00000       Uiso       1.00
      C148          C  0.2977103  0.4277396  0.1847580    0.00000       Uiso       1.00
      C149          C  0.2728792  0.4383063  0.1742645    0.00000       Uiso       1.00
      C150          C  0.2977107  0.3924081  0.1494265    0.00000       Uiso       1.00
      C151          C  0.2728808  0.4028195  0.1388829    0.00000       Uiso       1.00
      C152          C  0.2600175  0.4259502  0.1511621    0.00000       Uiso       1.00
       H73          H  0.0333671  0.6866227  0.1128426    0.00000       Uiso       1.00
       H74          H  0.0331649  0.4647834  0.8907048    0.00000       Uiso       1.00
       H75          H  0.3076124  0.3736425  0.1391038    0.00000       Uiso       1.00
      C153          C  0.9818996  0.7330037  0.1196376    0.00000       Uiso       1.00
      C154          C  0.0049190  0.7205324  0.1178737    0.00000       Uiso       1.00
      C155          C  0.0154628  0.6957024  0.1139989    0.00000       Uiso       1.00
      C156          C  0.9695873  0.7205324  0.1178737    0.00000       Uiso       1.00
      C157          C  0.9800811  0.6957014  0.1141033    0.00000       Uiso       1.00
      C158          C  0.0031836  0.6828396  0.1119879    0.00000       Uiso       1.00
       H76          H  0.2636429  0.4559823  0.1844235    0.00000       Uiso       1.00
       H77          H  0.0415032  0.4561875  0.1843276    0.00000       Uiso       1.00
       H78          H  0.0152418  0.7304340  0.1193324    0.00000       Uiso       1.00
      C159          C  0.9819022  0.4575320  0.8441665    0.00000       Uiso       1.00
      C160          C  0.9695898  0.4592958  0.8566376    0.00000       Uiso       1.00
      C161          C  0.9800006  0.4631712  0.8814675    0.00000       Uiso       1.00
      C162          C  0.0049215  0.4592958  0.8566376    0.00000       Uiso       1.00
      C163          C  0.0154882  0.4630656  0.8814684    0.00000       Uiso       1.00
      C164          C  0.0031314  0.4651817  0.8943300    0.00000       Uiso       1.00
       H79          H  0.0419598  0.3927445  0.1211829    0.00000       Uiso       1.00
       H80          H  0.2638012  0.3928389  0.1209788    0.00000       Uiso       1.00
       H81          H  0.9508243  0.4578372  0.8467361    0.00000       Uiso       1.00
      C165          C  0.0347077  0.4047202  0.1724458    0.00000       Uiso       1.00
      C166          C  0.0364718  0.3924081  0.1494264    0.00000       Uiso       1.00
      C167          C  0.0402417  0.4029025  0.1388595    0.00000       Uiso       1.00
      C168          C  0.0364715  0.4277397  0.1847579    0.00000       Uiso       1.00
      C169          C  0.0403466  0.4382835  0.1743469    0.00000       Uiso       1.00
      C170          C  0.0423574  0.4260049  0.1512160    0.00000       Uiso       1.00
       H82          H  0.9700196  0.4643284  0.8905478    0.00000       Uiso       1.00
       H83          H  0.9699222  0.6864651  0.1123843    0.00000       Uiso       1.00
      C171          C  0.0771720  0.4999938  0.0771728    0.00000       Uiso       1.00
       H84          H  0.0350125  0.4380622  0.2035234    0.00000       Uiso       1.00
       F25          F  0.3106517  0.4412314  0.2092848    0.00000       Uiso       1.00
       F26          F  0.0345654  0.3678812  0.1359345    0.00000       Uiso       1.00
       F27          F  0.0184137  0.4573894  0.8436961    0.00000       Uiso       1.00
       F28          F  0.9450602  0.7334740  0.1197803    0.00000       Uiso       1.00
      C172          C  0.2334001  0.4369764  0.1400225    0.00000       Uiso       1.00
      C173          C  0.2228336  0.4615994  0.1427716    0.00000       Uiso       1.00
      C174          C  0.1979359  0.4718792  0.1324072    0.00000       Uiso       1.00
      C175          C  0.2182495  0.4229702  0.1265562    0.00000       Uiso       1.00
      C176          C  0.1933571  0.4332451  0.1162121    0.00000       Uiso       1.00
      C177          C  0.1827629  0.4578800  0.1189513    0.00000       Uiso       1.00
       H85          H  0.0478689  0.6051195  0.0749549    0.00000       Uiso       1.00
       H86          H  0.0679666  0.4532106  0.9637464    0.00000       Uiso       1.00
       H87          H  0.2255985  0.4040810  0.1244121    0.00000       Uiso       1.00
      C178          C  0.0143234  0.6562223  0.1075367    0.00000       Uiso       1.00
      C179          C  0.0277875  0.6410711  0.0918439    0.00000       Uiso       1.00
      C180          C  0.0381310  0.6161786  0.0875697    0.00000       Uiso       1.00
      C181          C  0.0115758  0.6456564  0.1188458    0.00000       Uiso       1.00
      C182          C  0.0219400  0.6207584  0.1145915    0.00000       Uiso       1.00
      C183          C  0.0353934  0.6055852  0.0988732    0.00000       Uiso       1.00
       H88          H  0.1905958  0.4907914  0.1346329    0.00000       Uiso       1.00
       H89          H  0.0793896  0.4706905  0.1552108    0.00000       Uiso       1.00
       H90          H  0.0299290  0.6484200  0.0824458    0.00000       Uiso       1.00
      C184          C  0.0141570  0.4696328  0.9209470    0.00000       Uiso       1.00
      C185          C  0.0001527  0.4853319  0.9360989    0.00000       Uiso       1.00
      C186          C  0.0104280  0.4896041  0.9609911    0.00000       Uiso       1.00
      C187          C  0.0387774  0.4583156  0.9315113    0.00000       Uiso       1.00
      C188          C  0.0490570  0.4625667  0.9564086    0.00000       Uiso       1.00
      C189          C  0.0350595  0.4782917  0.9715828    0.00000       Uiso       1.00
       H91          H  0.0303899  0.4425538  0.0863799    0.00000       Uiso       1.00
       H92          H  0.1822982  0.4219511  0.1064697    0.00000       Uiso       1.00
       H93          H  0.9812659  0.4947345  0.9287510    0.00000       Uiso       1.00
      C190          C  0.0468086  0.4371456  0.1401905    0.00000       Uiso       1.00
      C191          C  0.0354937  0.4344052  0.1155697    0.00000       Uiso       1.00
      C192          C  0.0397445  0.4447722  0.1052900    0.00000       Uiso       1.00
      C193          C  0.0625049  0.4506056  0.1541954    0.00000       Uiso       1.00
      C194          C  0.0667764  0.4609512  0.1439201    0.00000       Uiso       1.00
      C195          C  0.0554667  0.4582219  0.1192881    0.00000       Uiso       1.00
       H94          H  0.9991384  0.5022209  0.9720537    0.00000       Uiso       1.00
       H95          H  0.0197160  0.6134167  0.1239377    0.00000       Uiso       1.00
       H96          H  0.0719055  0.4527442  0.1730829    0.00000       Uiso       1.00
       F29          F  0.2380884  0.4771340  0.1563384    0.00000       Uiso       1.00
       F30          F  0.0182644  0.4208459  0.1000374    0.00000       Uiso       1.00
       F31          F  0.0543086  0.4410837  0.9162540    0.00000       Uiso       1.00
       F32          F  0.9980103  0.6609120  0.1360698    0.00000       Uiso       1.00
      C196          C  0.1560766  0.4689068  0.1079897    0.00000       Uiso       1.00
      C197          C  0.1433294  0.4921177  0.1201539    0.00000       Uiso       1.00
      C198          C  0.1183469  0.5022351  0.1101562    0.00000       Uiso       1.00
      C199          C  0.1429448  0.4561211  0.0855348    0.00000       Uiso       1.00
      C200          C  0.1179694  0.4662356  0.0755561    0.00000       Uiso       1.00
      C201          C  0.1051546  0.4898714  0.0872148    0.00000       Uiso       1.00
       H97          H  0.0956657  0.5313758  0.0824116    0.00000       Uiso       1.00
       H98          H  0.0968504  0.4917811  0.0450934    0.00000       Uiso       1.00
       H99          H  0.1519991  0.4381764  0.0756026    0.00000       Uiso       1.00
      C202          C  0.0463548  0.5788990  0.0941759    0.00000       Uiso       1.00
      C203          C  0.0688093  0.5657675  0.0907124    0.00000       Uiso       1.00
      C204          C  0.0787884  0.5407912  0.0858282    0.00000       Uiso       1.00
      C205          C  0.0341908  0.5661520  0.0924759    0.00000       Uiso       1.00
      C206          C  0.0441890  0.5411689  0.0876067    0.00000       Uiso       1.00
      C207          C  0.0671298  0.5279763  0.0849903    0.00000       Uiso       1.00
      H100          H  0.1092494  0.5196707  0.1207217    0.00000       Uiso       1.00
      H101          H  0.0719418  0.5184870  0.1218169    0.00000       Uiso       1.00
      H102          H  0.0787380  0.5748249  0.0917531    0.00000       Uiso       1.00
      C208          C  0.0460848  0.4829894  0.9982683    0.00000       Uiso       1.00
      C209          C  0.0332983  0.4864545  0.0114004    0.00000       Uiso       1.00
      C210          C  0.0434121  0.4913384  0.0363758    0.00000       Uiso       1.00
      C211          C  0.0692955  0.4846899  0.0110146    0.00000       Uiso       1.00
      C212          C  0.0794131  0.4895575  0.0359969    0.00000       Uiso       1.00
      C213          C  0.0670488  0.4921741  0.0491895    0.00000       Uiso       1.00
      H103          H  0.0689572  0.4564533  0.0574960    0.00000       Uiso       1.00
      H104          H  0.1085565  0.4553578  0.0586758    0.00000       Uiso       1.00
      H105          H  0.0153537  0.4854126  0.0023464    0.00000       Uiso       1.00
      C214          C  0.0601656  0.4691843  0.1082629    0.00000       Uiso       1.00
      C215          C  0.0618629  0.4570209  0.0850511    0.00000       Uiso       1.00
      C216          C  0.0667333  0.4670160  0.0749333    0.00000       Uiso       1.00
      C217          C  0.0636362  0.4916361  0.1210513    0.00000       Uiso       1.00
      C218          C  0.0685224  0.5016115  0.1109365    0.00000       Uiso       1.00
      C219          C  0.0693551  0.4899540  0.0872985    0.00000       Uiso       1.00
      H106          H  0.0325320  0.4947512  0.0457877    0.00000       Uiso       1.00
      H107          H  0.0336245  0.5320686  0.0853764    0.00000       Uiso       1.00
      H108          H  0.0625983  0.5015689  0.1389978    0.00000       Uiso       1.00
       F33          F  0.1560762  0.5060188  0.1445216    0.00000       Uiso       1.00
       F34          F  0.0595711  0.4326578  0.0711486    0.00000       Uiso       1.00
       F35          F  0.0831952  0.4824051  0.9982637    0.00000       Uiso       1.00
       F36          F  0.0098215  0.5788980  0.0947533    0.00000       Uiso       1.00
      C220          C  0.4047201  0.0347076  0.1724459    0.00000       Uiso       1.00
      C221          C  0.4277396  0.0364714  0.1847580    0.00000       Uiso       1.00
      C222          C  0.4383063  0.0402425  0.1742646    0.00000       Uiso       1.00
      C223          C  0.3924081  0.0364718  0.1494265    0.00000       Uiso       1.00
      C224          C  0.4028195  0.0403469  0.1388829    0.00000       Uiso       1.00
      C225          C  0.4259503  0.0423583  0.1511621    0.00000       Uiso       1.00
      H109          H  0.6866227  0.9700181  0.1128426    0.00000       Uiso       1.00
      H110          H  0.4647833  0.9699256  0.8907048    0.00000       Uiso       1.00
      H111          H  0.3736425  0.0350131  0.1391038    0.00000       Uiso       1.00
      C226          C  0.7330037  0.9818998  0.1196377    0.00000       Uiso       1.00
      C227          C  0.7205324  0.9695876  0.1178738    0.00000       Uiso       1.00
      C228          C  0.6957024  0.9799990  0.1139990    0.00000       Uiso       1.00
      C229          C  0.7205324  0.0049189  0.1178738    0.00000       Uiso       1.00
      C230          C  0.6957015  0.0154858  0.1141034    0.00000       Uiso       1.00
      C231          C  0.6828396  0.0031295  0.1119880    0.00000       Uiso       1.00
      H112          H  0.4559823  0.0419616  0.1844235    0.00000       Uiso       1.00
      H113          H  0.4561876  0.2638001  0.1843276    0.00000       Uiso       1.00
      H114          H  0.7304341  0.9508219  0.1193325    0.00000       Uiso       1.00
      C232          C  0.4575320  0.9819025  0.8441665    0.00000       Uiso       1.00
      C233          C  0.4592958  0.0049215  0.8566377    0.00000       Uiso       1.00
      C234          C  0.4631712  0.0154646  0.8814675    0.00000       Uiso       1.00
      C235          C  0.4592957  0.9695901  0.8566377    0.00000       Uiso       1.00
      C236          C  0.4630655  0.9800838  0.8814684    0.00000       Uiso       1.00
      C237          C  0.4651816  0.0031855  0.8943301    0.00000       Uiso       1.00
      H115          H  0.3927445  0.2636432  0.1211829    0.00000       Uiso       1.00
      H116          H  0.3928390  0.0415032  0.1209788    0.00000       Uiso       1.00
      H117          H  0.4578372  0.0152443  0.8467361    0.00000       Uiso       1.00
      C238          C  0.4047202  0.3101815  0.1724458    0.00000       Uiso       1.00
      C239          C  0.3924081  0.2977105  0.1494264    0.00000       Uiso       1.00
      C240          C  0.4029025  0.2728795  0.1388595    0.00000       Uiso       1.00
      C241          C  0.4277397  0.2977101  0.1847580    0.00000       Uiso       1.00
      C242          C  0.4382835  0.2728803  0.1743469    0.00000       Uiso       1.00
      C243          C  0.4260049  0.2600176  0.1512160    0.00000       Uiso       1.00
      H118          H  0.4643283  0.0333685  0.8905478    0.00000       Uiso       1.00
      H119          H  0.6864651  0.0331620  0.1123844    0.00000       Uiso       1.00
      C244          C  0.4999939  0.0771725  0.0771728    0.00000       Uiso       1.00
      H120          H  0.4380623  0.3076116  0.2035234    0.00000       Uiso       1.00
       F37          F  0.4412314  0.0345645  0.2092849    0.00000       Uiso       1.00
       F38          F  0.3678812  0.3106523  0.1359345    0.00000       Uiso       1.00
       F39          F  0.4573893  0.9450632  0.8436962    0.00000       Uiso       1.00
       F40          F  0.7334741  0.0184109  0.1197804    0.00000       Uiso       1.00
      C245          C  0.4369764  0.0468102  0.1400225    0.00000       Uiso       1.00
      C246          C  0.4615994  0.0355028  0.1427716    0.00000       Uiso       1.00
      C247          C  0.4718793  0.0397565  0.1324073    0.00000       Uiso       1.00
      C248          C  0.4229702  0.0625011  0.1265562    0.00000       Uiso       1.00
      C249          C  0.4332452  0.0667746  0.1162122    0.00000       Uiso       1.00
      C250          C  0.4578800  0.0554731  0.1189513    0.00000       Uiso       1.00
      H121          H  0.6051195  0.9991326  0.0749550    0.00000       Uiso       1.00
      H122          H  0.4532106  0.0197362  0.9637465    0.00000       Uiso       1.00
      H123          H  0.4040811  0.0718971  0.1244121    0.00000       Uiso       1.00
      C251          C  0.6562223  0.0141559  0.1075367    0.00000       Uiso       1.00
      C252          C  0.6410711  0.0001506  0.0918440    0.00000       Uiso       1.00
      C253          C  0.6161787  0.0104254  0.0875698    0.00000       Uiso       1.00
      C254          C  0.6456565  0.0387783  0.1188459    0.00000       Uiso       1.00
      C255          C  0.6207585  0.0490580  0.1145916    0.00000       Uiso       1.00
      C256          C  0.6055852  0.0350597  0.0988732    0.00000       Uiso       1.00
      H124          H  0.4907914  0.0304101  0.1346330    0.00000       Uiso       1.00
      H125          H  0.4706905  0.1822946  0.1552108    0.00000       Uiso       1.00
      H126          H  0.6484200  0.9812628  0.0824459    0.00000       Uiso       1.00
      C257          C  0.4696328  0.0143251  0.9209470    0.00000       Uiso       1.00
      C258          C  0.4853319  0.0277820  0.9360990    0.00000       Uiso       1.00
      C259          C  0.4896040  0.0381261  0.9609911    0.00000       Uiso       1.00
      C260          C  0.4583156  0.0115861  0.9315115    0.00000       Uiso       1.00
      C261          C  0.4625667  0.0219520  0.9564087    0.00000       Uiso       1.00
      C262          C  0.4782916  0.0353984  0.9715828    0.00000       Uiso       1.00
      H127          H  0.4425538  0.1906015  0.0863799    0.00000       Uiso       1.00
      H128          H  0.4219511  0.0793854  0.1064698    0.00000       Uiso       1.00
      H129          H  0.4947344  0.0299186  0.9287511    0.00000       Uiso       1.00
      C263          C  0.4371457  0.2334004  0.1401905    0.00000       Uiso       1.00
      C264          C  0.4344052  0.2228355  0.1155697    0.00000       Uiso       1.00
      C265          C  0.4447722  0.1979383  0.1052901    0.00000       Uiso       1.00
      C266          C  0.4506056  0.2182488  0.1541954    0.00000       Uiso       1.00
      C267          C  0.4609513  0.1933566  0.1439201    0.00000       Uiso       1.00
      C268          C  0.4582219  0.1827642  0.1192881    0.00000       Uiso       1.00
      H130          H  0.5022208  0.0478615  0.9720537    0.00000       Uiso       1.00
      H131          H  0.6134168  0.0679696  0.1239378    0.00000       Uiso       1.00
      H132          H  0.4527442  0.2255968  0.1730829    0.00000       Uiso       1.00
       F41          F  0.4771340  0.0182798  0.1563385    0.00000       Uiso       1.00
       F42          F  0.4208459  0.2380921  0.1000374    0.00000       Uiso       1.00
       F43          F  0.4410836  0.9980302  0.9162540    0.00000       Uiso       1.00
       F44          F  0.6609120  0.0543120  0.1360699    0.00000       Uiso       1.00
      C269          C  0.4689068  0.0601712  0.1079897    0.00000       Uiso       1.00
      C270          C  0.4921178  0.0618714  0.1201539    0.00000       Uiso       1.00
      C271          C  0.5022352  0.0667390  0.1101562    0.00000       Uiso       1.00
      C272          C  0.4561212  0.0636343  0.0855349    0.00000       Uiso       1.00
      C273          C  0.4662356  0.0685167  0.0755562    0.00000       Uiso       1.00
      C274          C  0.4898715  0.0693541  0.0872148    0.00000       Uiso       1.00
      H133          H  0.5313759  0.0325355  0.0824117    0.00000       Uiso       1.00
      H134          H  0.4917812  0.0336281  0.0450935    0.00000       Uiso       1.00
      H135          H  0.4381764  0.0625927  0.0756026    0.00000       Uiso       1.00
      C275          C  0.5788991  0.0460872  0.0941760    0.00000       Uiso       1.00
      C276          C  0.5657676  0.0333009  0.0907125    0.00000       Uiso       1.00
      C277          C  0.5407912  0.0434140  0.0858282    0.00000       Uiso       1.00
      C278          C  0.5661521  0.0692983  0.0924760    0.00000       Uiso       1.00
      C279          C  0.5411690  0.0794142  0.0876068    0.00000       Uiso       1.00
      C280          C  0.5279763  0.0670496  0.0849903    0.00000       Uiso       1.00
      H136          H  0.5196707  0.0689662  0.1207217    0.00000       Uiso       1.00
      H137          H  0.5184871  0.1085526  0.1218169    0.00000       Uiso       1.00
      H138          H  0.5748249  0.0153554  0.0917531    0.00000       Uiso       1.00
      C281          C  0.4829894  0.0463604  0.9982684    0.00000       Uiso       1.00
      C282          C  0.4864546  0.0688145  0.0114005    0.00000       Uiso       1.00
      C283          C  0.4913385  0.0787917  0.0363759    0.00000       Uiso       1.00
      C284          C  0.4846900  0.0341961  0.0110147    0.00000       Uiso       1.00
      C285          C  0.4895576  0.0441926  0.0359969    0.00000       Uiso       1.00
      C286          C  0.4921741  0.0671329  0.0491896    0.00000       Uiso       1.00
      H139          H  0.4564534  0.1092515  0.0574960    0.00000       Uiso       1.00
      H140          H  0.4553579  0.0719274  0.0586759    0.00000       Uiso       1.00
      H141          H  0.4854127  0.0787472  0.0023464    0.00000       Uiso       1.00
      C287          C  0.4691844  0.1560779  0.1082630    0.00000       Uiso       1.00
      C288          C  0.4570209  0.1433326  0.0850511    0.00000       Uiso       1.00
      C289          C  0.4670161  0.1183496  0.0749333    0.00000       Uiso       1.00
      C290          C  0.4916361  0.1429436  0.1210513    0.00000       Uiso       1.00
      C291          C  0.5016115  0.1179675  0.1109365    0.00000       Uiso       1.00
      C292          C  0.4899541  0.1051547  0.0872985    0.00000       Uiso       1.00
      H142          H  0.4947512  0.0956707  0.0457877    0.00000       Uiso       1.00
      H143          H  0.5320687  0.0968487  0.0853764    0.00000       Uiso       1.00
      H144          H  0.5015689  0.1519948  0.1389978    0.00000       Uiso       1.00
       F45          F  0.5060188  0.0595908  0.1445217    0.00000       Uiso       1.00
       F46          F  0.4326578  0.1560854  0.0711486    0.00000       Uiso       1.00
       F47          F  0.4824050  0.0098297  0.9982637    0.00000       Uiso       1.00
       F48          F  0.5788980  0.0831989  0.0947533    0.00000       Uiso       1.00
      C293          C  0.4047264  0.3101879  0.5424647    0.00000       Uiso       1.00
      C294          C  0.4277461  0.2977166  0.5407007    0.00000       Uiso       1.00
      C295          C  0.4383127  0.2728855  0.5369298    0.00000       Uiso       1.00
      C296          C  0.3924142  0.2977166  0.5407007    0.00000       Uiso       1.00
      C297          C  0.4028255  0.2728867  0.5368258    0.00000       Uiso       1.00
      C298          C  0.4259564  0.2600236  0.5348142    0.00000       Uiso       1.00
      H145          H  0.6866277  0.0333720  0.6071546    0.00000       Uiso       1.00
      H146          H  0.4647864  0.0331678  0.6072491    0.00000       Uiso       1.00
      H147          H  0.3736485  0.3076183  0.5421594    0.00000       Uiso       1.00
      C299          C  0.7330088  0.9819050  0.5952730    0.00000       Uiso       1.00
      C300          C  0.7205375  0.0049240  0.6075851    0.00000       Uiso       1.00
      C301          C  0.6957076  0.0154678  0.5971738    0.00000       Uiso       1.00
      C302          C  0.7205378  0.9695929  0.5722536    0.00000       Uiso       1.00
      C303          C  0.6957068  0.9800868  0.5616869    0.00000       Uiso       1.00
      C304          C  0.6828449  0.0031888  0.5740430    0.00000       Uiso       1.00
      H148          H  0.4559889  0.2636493  0.5352106    0.00000       Uiso       1.00
      H149          H  0.4561964  0.0415120  0.3133744    0.00000       Uiso       1.00
      H150          H  0.7304389  0.0152465  0.6263506    0.00000       Uiso       1.00
      C305          C  0.4575346  0.9819050  0.5952728    0.00000       Uiso       1.00
      C306          C  0.4592988  0.9695931  0.5722535    0.00000       Uiso       1.00
      C307          C  0.4631746  0.9800042  0.5617101    0.00000       Uiso       1.00
      C308          C  0.4592985  0.0049241  0.6075850    0.00000       Uiso       1.00
      C309          C  0.4630686  0.0154912  0.5970911    0.00000       Uiso       1.00
      C310          C  0.4651851  0.0031347  0.5739890    0.00000       Uiso       1.00
      H151          H  0.3927528  0.0419678  0.3135320    0.00000       Uiso       1.00
      H152          H  0.3928448  0.2638069  0.5356696    0.00000       Uiso       1.00
      H153          H  0.4578401  0.9508275  0.5619308    0.00000       Uiso       1.00
      C311          C  0.4047294  0.0347167  0.2669936    0.00000       Uiso       1.00
      C312          C  0.3924170  0.0364805  0.2794648    0.00000       Uiso       1.00
      C313          C  0.4029110  0.0402500  0.3042956    0.00000       Uiso       1.00
      C314          C  0.4277489  0.0364805  0.2794648    0.00000       Uiso       1.00
      C315          C  0.4382924  0.0403553  0.3042944    0.00000       Uiso       1.00
      C316          C  0.4260135  0.0423658  0.3171572    0.00000       Uiso       1.00
      H154          H  0.4643320  0.9700235  0.5438064    0.00000       Uiso       1.00
      H155          H  0.6864707  0.9699281  0.5440109    0.00000       Uiso       1.00
      C317          C  0.4999996  0.0771776  0.5000011    0.00000       Uiso       1.00
      H156          H  0.4380718  0.0350219  0.2695632    0.00000       Uiso       1.00
       F49          F  0.4412381  0.3106582  0.5426073    0.00000       Uiso       1.00
       F50          F  0.3678901  0.0345741  0.2665233    0.00000       Uiso       1.00
       F51          F  0.4573916  0.0184159  0.6321118    0.00000       Uiso       1.00
       F52          F  0.7334796  0.9450660  0.5587617    0.00000       Uiso       1.00
      C318          C  0.4369825  0.2334061  0.5303625    0.00000       Uiso       1.00
      C319          C  0.4616054  0.2228395  0.5416698    0.00000       Uiso       1.00
      C320          C  0.4718852  0.1979417  0.5374162    0.00000       Uiso       1.00
      C321          C  0.4229763  0.2182554  0.5146719    0.00000       Uiso       1.00
      C322          C  0.4332512  0.1933630  0.5103986    0.00000       Uiso       1.00
      C323          C  0.4578860  0.1827687  0.5216999    0.00000       Uiso       1.00
      H157          H  0.6051244  0.0478737  0.5780407    0.00000       Uiso       1.00
      H158          H  0.4532149  0.0679708  0.5574377    0.00000       Uiso       1.00
      H159          H  0.4040873  0.2256046  0.5052760    0.00000       Uiso       1.00
      C324          C  0.6562277  0.0143287  0.5630168    0.00000       Uiso       1.00
      C325          C  0.6410761  0.0277924  0.5770221    0.00000       Uiso       1.00
      C326          C  0.6161838  0.0381361  0.5667475    0.00000       Uiso       1.00
      C327          C  0.6456622  0.0115815  0.5383946    0.00000       Uiso       1.00
      C328          C  0.6207643  0.0219457  0.5281150    0.00000       Uiso       1.00
      C329          C  0.6055907  0.0353989  0.5421134    0.00000       Uiso       1.00
      H160          H  0.4907973  0.1906015  0.5467625    0.00000       Uiso       1.00
      H161          H  0.4706982  0.0793971  0.3948794    0.00000       Uiso       1.00
      H162          H  0.6484248  0.0299337  0.5959104    0.00000       Uiso       1.00
      C330          C  0.4696366  0.0141607  0.5628492    0.00000       Uiso       1.00
      C331          C  0.4853360  0.0001567  0.5493924    0.00000       Uiso       1.00
      C332          C  0.4896085  0.0104324  0.5390480    0.00000       Uiso       1.00
      C333          C  0.4583195  0.0387812  0.5655881    0.00000       Uiso       1.00
      C334          C  0.4625710  0.0490612  0.5552220    0.00000       Uiso       1.00
      C335          C  0.4782962  0.0350640  0.5417756    0.00000       Uiso       1.00
      H163          H  0.4425609  0.0303968  0.3865733    0.00000       Uiso       1.00
      H164          H  0.4219572  0.1823041  0.4977880    0.00000       Uiso       1.00
      H165          H  0.4947385  0.9812702  0.5472558    0.00000       Uiso       1.00
      C336          C  0.4371537  0.0468166  0.3437742    0.00000       Uiso       1.00
      C337          C  0.4344130  0.0355013  0.3543393    0.00000       Uiso       1.00
      C338          C  0.4447796  0.0397516  0.3792363    0.00000       Uiso       1.00
      C339          C  0.4506137  0.0625128  0.3589255    0.00000       Uiso       1.00
      C340          C  0.4609590  0.0667839  0.3838176    0.00000       Uiso       1.00
      C341          C  0.4582293  0.0554738  0.3944102    0.00000       Uiso       1.00
      H166          H  0.5022255  0.9991434  0.5293127    0.00000       Uiso       1.00
      H167          H  0.6134229  0.0197220  0.5092036    0.00000       Uiso       1.00
      H168          H  0.4527526  0.0719136  0.3515775    0.00000       Uiso       1.00
       F53          F  0.4771400  0.2380943  0.5588924    0.00000       Uiso       1.00
       F54          F  0.4208536  0.0182720  0.3390830    0.00000       Uiso       1.00
       F55          F  0.4410872  0.0543121  0.5791445    0.00000       Uiso       1.00
       F56          F  0.6609181  0.9980167  0.5228608    0.00000       Uiso       1.00
      C342          C  0.4689127  0.1560824  0.5170020    0.00000       Uiso       1.00
      C343          C  0.4921238  0.1433353  0.5153016    0.00000       Uiso       1.00
      C344          C  0.5022411  0.1183528  0.5104342    0.00000       Uiso       1.00
      C345          C  0.4561269  0.1429504  0.5135392    0.00000       Uiso       1.00
      C346          C  0.4662413  0.1179749  0.5086569    0.00000       Uiso       1.00
      C347          C  0.4898773  0.1051602  0.5078194    0.00000       Uiso       1.00
      H169          H  0.5313812  0.0956709  0.5446376    0.00000       Uiso       1.00
      H170          H  0.4917861  0.0968552  0.5435454    0.00000       Uiso       1.00
      H171          H  0.4381820  0.1520045  0.5145808    0.00000       Uiso       1.00
      C348          C  0.5789047  0.0463603  0.5310860    0.00000       Uiso       1.00
      C349          C  0.5657730  0.0688146  0.5438722    0.00000       Uiso       1.00
      C350          C  0.5407967  0.0787937  0.5337592    0.00000       Uiso       1.00
      C351          C  0.5661579  0.0341965  0.5078751    0.00000       Uiso       1.00
      C352          C  0.5411748  0.0441947  0.4977594    0.00000       Uiso       1.00
      C353          C  0.5279821  0.0671354  0.5101239    0.00000       Uiso       1.00
      H172          H  0.5196768  0.1092554  0.5082069    0.00000       Uiso       1.00
      H173          H  0.5184937  0.0719483  0.4686210    0.00000       Uiso       1.00
      H174          H  0.5748302  0.0787431  0.5618175    0.00000       Uiso       1.00
      C354          C  0.4829944  0.0460897  0.5308135    0.00000       Uiso       1.00
      C355          C  0.4864596  0.0333031  0.5083598    0.00000       Uiso       1.00
      C356          C  0.4913438  0.0434173  0.4983824    0.00000       Uiso       1.00
      C357          C  0.4846946  0.0693000  0.5429778    0.00000       Uiso       1.00
      C358          C  0.4895625  0.0794180  0.5329812    0.00000       Uiso       1.00
      C359          C  0.4921795  0.0670540  0.5100410    0.00000       Uiso       1.00
      H175          H  0.4564592  0.0689629  0.4679227    0.00000       Uiso       1.00
      H176          H  0.4553634  0.1085619  0.5052465    0.00000       Uiso       1.00
      H177          H  0.4854176  0.0153585  0.4984273    0.00000       Uiso       1.00
      C360          C  0.4691913  0.0601724  0.4210963    0.00000       Uiso       1.00
      C361          C  0.4570275  0.0618693  0.4338417    0.00000       Uiso       1.00
      C362          C  0.4670223  0.0667393  0.4588246    0.00000       Uiso       1.00
      C363          C  0.4916430  0.0636430  0.4342303    0.00000       Uiso       1.00
      C364          C  0.5016180  0.0685288  0.4592063    0.00000       Uiso       1.00
      C365          C  0.4899602  0.0693611  0.4720191    0.00000       Uiso       1.00
      H178          H  0.4947568  0.0325375  0.4815035    0.00000       Uiso       1.00
      H179          H  0.5320747  0.0336304  0.4803251    0.00000       Uiso       1.00
      H180          H  0.5015762  0.0626053  0.4251790    0.00000       Uiso       1.00
       F57          F  0.5060251  0.1560823  0.5175819    0.00000       Uiso       1.00
       F58          F  0.4326643  0.0595775  0.4210892    0.00000       Uiso       1.00
       F59          F  0.4824096  0.0831997  0.5673438    0.00000       Uiso       1.00
       F60          F  0.5789040  0.0098274  0.4939747    0.00000       Uiso       1.00
      C366          C  0.0347076  0.3101816  0.1724459    0.00000       Uiso       1.00
      C367          C  0.0364714  0.2977102  0.1847580    0.00000       Uiso       1.00
      C368          C  0.0402425  0.2728792  0.1742645    0.00000       Uiso       1.00
      C369          C  0.0364717  0.2977106  0.1494265    0.00000       Uiso       1.00
      C370          C  0.0403469  0.2728807  0.1388829    0.00000       Uiso       1.00
      C371          C  0.0423583  0.2600175  0.1511621    0.00000       Uiso       1.00
      H181          H  0.9700178  0.0333670  0.1128426    0.00000       Uiso       1.00
      H182          H  0.9699252  0.0331648  0.8907048    0.00000       Uiso       1.00
      H183          H  0.0350131  0.3076123  0.1391038    0.00000       Uiso       1.00
      C372          C  0.9818994  0.9818998  0.1196377    0.00000       Uiso       1.00
      C373          C  0.9695873  0.0049189  0.1178738    0.00000       Uiso       1.00
      C374          C  0.9799987  0.0154627  0.1139990    0.00000       Uiso       1.00
      C375          C  0.0049189  0.9695876  0.1178738    0.00000       Uiso       1.00
      C376          C  0.0154857  0.9800813  0.1141034    0.00000       Uiso       1.00
      C377          C  0.0031295  0.0031835  0.1119880    0.00000       Uiso       1.00
      H184          H  0.0419615  0.2636428  0.1844235    0.00000       Uiso       1.00
      H185          H  0.2638001  0.0415031  0.1843277    0.00000       Uiso       1.00
      H186          H  0.9508215  0.0152417  0.1193325    0.00000       Uiso       1.00
      C378          C  0.9819021  0.9819025  0.8441665    0.00000       Uiso       1.00
      C379          C  0.0049214  0.9695901  0.8566377    0.00000       Uiso       1.00
      C380          C  0.0154645  0.9800009  0.8814675    0.00000       Uiso       1.00
      C381          C  0.9695898  0.0049215  0.8566377    0.00000       Uiso       1.00
      C382          C  0.9800834  0.0154882  0.8814684    0.00000       Uiso       1.00
      C383          C  0.0031854  0.0031314  0.8943301    0.00000       Uiso       1.00
      H187          H  0.2636432  0.0419597  0.1211830    0.00000       Uiso       1.00
      H188          H  0.0415032  0.2638011  0.1209788    0.00000       Uiso       1.00
      H189          H  0.0152443  0.9508245  0.8467361    0.00000       Uiso       1.00
      C384          C  0.3101816  0.0347076  0.1724459    0.00000       Uiso       1.00
      C385          C  0.2977105  0.0364717  0.1494265    0.00000       Uiso       1.00
      C386          C  0.2728795  0.0402416  0.1388595    0.00000       Uiso       1.00
      C387          C  0.2977101  0.0364714  0.1847580    0.00000       Uiso       1.00
      C388          C  0.2728803  0.0403465  0.1743469    0.00000       Uiso       1.00
      C389          C  0.2600176  0.0423573  0.1512161    0.00000       Uiso       1.00
      H190          H  0.0333684  0.9700199  0.8905478    0.00000       Uiso       1.00
      H191          H  0.0331620  0.9699225  0.1123844    0.00000       Uiso       1.00
      C390          C  0.0771726  0.0771718  0.0771728    0.00000       Uiso       1.00
      H192          H  0.3076116  0.0350124  0.2035235    0.00000       Uiso       1.00
       F61          F  0.0345645  0.3106516  0.2092848    0.00000       Uiso       1.00
       F62          F  0.3106523  0.0345653  0.1359346    0.00000       Uiso       1.00
       F63          F  0.9450628  0.0184136  0.8436962    0.00000       Uiso       1.00
       F64          F  0.0184109  0.9450604  0.1197804    0.00000       Uiso       1.00
      C391          C  0.0468102  0.2334000  0.1400225    0.00000       Uiso       1.00
      C392          C  0.0355028  0.2228335  0.1427716    0.00000       Uiso       1.00
      C393          C  0.0397565  0.1979358  0.1324073    0.00000       Uiso       1.00
      C394          C  0.0625010  0.2182494  0.1265562    0.00000       Uiso       1.00
      C395          C  0.0667746  0.1933570  0.1162122    0.00000       Uiso       1.00
      C396          C  0.0554731  0.1827628  0.1189513    0.00000       Uiso       1.00
      H193          H  0.9991323  0.0478688  0.0749550    0.00000       Uiso       1.00
      H194          H  0.0197362  0.0679666  0.9637465    0.00000       Uiso       1.00
      H195          H  0.0718971  0.2255984  0.1244121    0.00000       Uiso       1.00
      C397          C  0.0141559  0.0143233  0.1075367    0.00000       Uiso       1.00
      C398          C  0.0001506  0.0277874  0.0918440    0.00000       Uiso       1.00
      C399          C  0.0104254  0.0381309  0.0875698    0.00000       Uiso       1.00
      C400          C  0.0387783  0.0115757  0.1188459    0.00000       Uiso       1.00
      C401          C  0.0490580  0.0219399  0.1145916    0.00000       Uiso       1.00
      C402          C  0.0350597  0.0353934  0.0988733    0.00000       Uiso       1.00
      H196          H  0.0304101  0.1905957  0.1346330    0.00000       Uiso       1.00
      H197          H  0.1822946  0.0793895  0.1552109    0.00000       Uiso       1.00
      H198          H  0.9812625  0.0299289  0.0824459    0.00000       Uiso       1.00
      C403          C  0.0143251  0.0141570  0.9209471    0.00000       Uiso       1.00
      C404          C  0.0277819  0.0001527  0.9360990    0.00000       Uiso       1.00
      C405          C  0.0381261  0.0104280  0.9609911    0.00000       Uiso       1.00
      C406          C  0.0115861  0.0387773  0.9315115    0.00000       Uiso       1.00
      C407          C  0.0219520  0.0490570  0.9564087    0.00000       Uiso       1.00
      C408          C  0.0353983  0.0350595  0.9715828    0.00000       Uiso       1.00
      H199          H  0.1906016  0.0303898  0.0863800    0.00000       Uiso       1.00
      H200          H  0.0793854  0.1822980  0.1064698    0.00000       Uiso       1.00
      H201          H  0.0299185  0.9812661  0.9287511    0.00000       Uiso       1.00
      C409          C  0.2334005  0.0468085  0.1401905    0.00000       Uiso       1.00
      C410          C  0.2228355  0.0354936  0.1155698    0.00000       Uiso       1.00
      C411          C  0.1979384  0.0397443  0.1052901    0.00000       Uiso       1.00
      C412          C  0.2182488  0.0625048  0.1541955    0.00000       Uiso       1.00
      C413          C  0.1933566  0.0667763  0.1439202    0.00000       Uiso       1.00
      C414          C  0.1827642  0.0554665  0.1192882    0.00000       Uiso       1.00
      H202          H  0.0478614  0.9991387  0.9720538    0.00000       Uiso       1.00
      H203          H  0.0679696  0.0197159  0.1239378    0.00000       Uiso       1.00
      H204          H  0.2255968  0.0719054  0.1730829    0.00000       Uiso       1.00
       F65          F  0.0182798  0.2380884  0.1563385    0.00000       Uiso       1.00
       F66          F  0.2380922  0.0182643  0.1000374    0.00000       Uiso       1.00
       F67          F  0.9980298  0.0543086  0.9162540    0.00000       Uiso       1.00
       F68          F  0.0543120  0.9980106  0.1360699    0.00000       Uiso       1.00
      C415          C  0.0601712  0.1560765  0.1079897    0.00000       Uiso       1.00
      C416          C  0.0618714  0.1433293  0.1201539    0.00000       Uiso       1.00
      C417          C  0.0667390  0.1183468  0.1101562    0.00000       Uiso       1.00
      C418          C  0.0636343  0.1429447  0.0855349    0.00000       Uiso       1.00
      C419          C  0.0685167  0.1179693  0.0755562    0.00000       Uiso       1.00
      C420          C  0.0693541  0.1051545  0.0872148    0.00000       Uiso       1.00
      H205          H  0.0325356  0.0956656  0.0824117    0.00000       Uiso       1.00
      H206          H  0.0336282  0.0968502  0.0450935    0.00000       Uiso       1.00
      H207          H  0.0625927  0.1519990  0.0756026    0.00000       Uiso       1.00
      C421          C  0.0460873  0.0463547  0.0941760    0.00000       Uiso       1.00
      C422          C  0.0333009  0.0688092  0.0907125    0.00000       Uiso       1.00
      C423          C  0.0434140  0.0787883  0.0858282    0.00000       Uiso       1.00
      C424          C  0.0692983  0.0341907  0.0924760    0.00000       Uiso       1.00
      C425          C  0.0794142  0.0441888  0.0876068    0.00000       Uiso       1.00
      C426          C  0.0670496  0.0671297  0.0849903    0.00000       Uiso       1.00
      H208          H  0.0689662  0.1092493  0.1207217    0.00000       Uiso       1.00
      H209          H  0.1085526  0.0719417  0.1218169    0.00000       Uiso       1.00
      H210          H  0.0153554  0.0787379  0.0917531    0.00000       Uiso       1.00
      C427          C  0.0463603  0.0460848  0.9982684    0.00000       Uiso       1.00
      C428          C  0.0688145  0.0332982  0.0114005    0.00000       Uiso       1.00
      C429          C  0.0787918  0.0434120  0.0363759    0.00000       Uiso       1.00
      C430          C  0.0341962  0.0692954  0.0110147    0.00000       Uiso       1.00
      C431          C  0.0441926  0.0794130  0.0359969    0.00000       Uiso       1.00
      C432          C  0.0671329  0.0670486  0.0491896    0.00000       Uiso       1.00
      H211          H  0.1092515  0.0689571  0.0574960    0.00000       Uiso       1.00
      H212          H  0.0719274  0.1085564  0.0586759    0.00000       Uiso       1.00
      H213          H  0.0787472  0.0153536  0.0023464    0.00000       Uiso       1.00
      C433          C  0.1560779  0.0601655  0.1082630    0.00000       Uiso       1.00
      C434          C  0.1433327  0.0618628  0.0850511    0.00000       Uiso       1.00
      C435          C  0.1183496  0.0667331  0.0749334    0.00000       Uiso       1.00
      C436          C  0.1429436  0.0636361  0.1210513    0.00000       Uiso       1.00
      C437          C  0.1179675  0.0685223  0.1109365    0.00000       Uiso       1.00
      C438          C  0.1051548  0.0693549  0.0872985    0.00000       Uiso       1.00
      H214          H  0.0956707  0.0325319  0.0457877    0.00000       Uiso       1.00
      H215          H  0.0968487  0.0336244  0.0853764    0.00000       Uiso       1.00
      H216          H  0.1519948  0.0625982  0.1389978    0.00000       Uiso       1.00
       F69          F  0.0595908  0.1560761  0.1445217    0.00000       Uiso       1.00
       F70          F  0.1560854  0.0595710  0.0711487    0.00000       Uiso       1.00
       F71          F  0.0098296  0.0831952  0.9982637    0.00000       Uiso       1.00
       F72          F  0.0831989  0.0098214  0.0947533    0.00000       Uiso       1.00
      C439          C  0.7960380  0.4531409  0.6344963    0.00000       Uiso       1.00
      C440          C  0.8166302  0.4519087  0.6549383    0.00000       Uiso       1.00
      C441          C  0.8172846  0.4495143  0.6745583    0.00000       Uiso       1.00
      C442          C  0.8376367  0.4495248  0.6953483    0.00000       Uiso       1.00
      C443          C  0.8573221  0.4532946  0.6975291    0.00000       Uiso       1.00
      C444          C  0.8561248  0.4560352  0.6776651    0.00000       Uiso       1.00
      C445          C  0.8368838  0.4536787  0.6557397    0.00000       Uiso       1.00
        O1          O  0.7744451  0.4526245  0.6312160    0.00000       Uiso       1.00
      H217          H  0.8019142  0.4476113  0.6736841    0.00000       Uiso       1.00
      H218          H  0.8375487  0.4468172  0.7096570    0.00000       Uiso       1.00
      H219          H  0.8695038  0.4615569  0.6797265    0.00000       Uiso       1.00
      C446          C  0.9427084  0.4530778  0.6146817    0.00000       Uiso       1.00
      C447          C  0.9222715  0.4518315  0.6135973    0.00000       Uiso       1.00
      C448          C  0.9026438  0.4494495  0.5922425    0.00000       Uiso       1.00
      C449          C  0.8818529  0.4494672  0.5918215    0.00000       Uiso       1.00
      C450          C  0.8796752  0.4532382  0.6130979    0.00000       Uiso       1.00
      C451          C  0.8995534  0.4559547  0.6344968    0.00000       Uiso       1.00
      C452          C  0.9214794  0.4535879  0.6348165    0.00000       Uiso       1.00
        O2          O  0.9459717  0.4525941  0.5958589    0.00000       Uiso       1.00
      H220          H  0.9035053  0.4475624  0.5758444    0.00000       Uiso       1.00
      H221          H  0.8675391  0.4467718  0.5747203    0.00000       Uiso       1.00
      H222          H  0.8975056  0.4614744  0.6513404    0.00000       Uiso       1.00
      C453          C  0.9624829  0.4530978  0.7811178    0.00000       Uiso       1.00
      C454          C  0.9635726  0.4518333  0.7605158    0.00000       Uiso       1.00
      C455          C  0.9849388  0.4494175  0.7598571    0.00000       Uiso       1.00
      C456          C  0.9853755  0.4494055  0.7394971    0.00000       Uiso       1.00
      C457          C  0.9641030  0.4531736  0.7198089    0.00000       Uiso       1.00
      C458          C  0.9426904  0.4559225  0.7210068    0.00000       Uiso       1.00
      C459          C  0.9423534  0.4535963  0.7402613    0.00000       Uiso       1.00
        O3          O  0.9813132  0.4525854  0.8027091    0.00000       Uiso       1.00
      H223          H  0.0013312  0.4475273  0.7752380    0.00000       Uiso       1.00
      H224          H  0.0024824  0.4466924  0.7395855    0.00000       Uiso       1.00
      H225          H  0.9258526  0.4614359  0.7076226    0.00000       Uiso       1.00
      C460          C  0.9414485  0.4562129  0.7820964    0.00000       Uiso       1.00
      C461          C  0.9203999  0.4567838  0.7620702    0.00000       Uiso       1.00
      C462          C  0.8990765  0.4593919  0.7629797    0.00000       Uiso       1.00
      C463          C  0.8784433  0.4590073  0.7424731    0.00000       Uiso       1.00
      C464          C  0.8790468  0.4546162  0.7201819    0.00000       Uiso       1.00
      C465          C  0.9008927  0.4514909  0.7195591    0.00000       Uiso       1.00
      C466          C  0.9210699  0.4542863  0.7404715    0.00000       Uiso       1.00
        O4          O  0.9439687  0.4579884  0.8044028    0.00000       Uiso       1.00
      H226          H  0.8984549  0.4618241  0.7797185    0.00000       Uiso       1.00
      H227          H  0.8622159  0.4619848  0.7443495    0.00000       Uiso       1.00
      H228          H  0.9027261  0.4454577  0.7024840    0.00000       Uiso       1.00
      C467          C  0.9616249  0.4561515  0.6357079    0.00000       Uiso       1.00
      C468          C  0.9620830  0.4566996  0.6567493    0.00000       Uiso       1.00
      C469          C  0.9817284  0.4592558  0.6780617    0.00000       Uiso       1.00
      C470          C  0.9822402  0.4588548  0.6986864    0.00000       Uiso       1.00
      C471          C  0.9637128  0.4545037  0.6980889    0.00000       Uiso       1.00
      C472          C  0.9443511  0.4514270  0.6762521    0.00000       Uiso       1.00
      C473          C  0.9422966  0.4542348  0.6560852    0.00000       Uiso       1.00
        O5          O  0.9796386  0.4579200  0.6331869    0.00000       Uiso       1.00
      H229          H  0.9966687  0.4616711  0.6786848    0.00000       Uiso       1.00
      H230          H  0.9973851  0.4617963  0.7149044    0.00000       Uiso       1.00
      H231          H  0.9314566  0.4454111  0.6744073    0.00000       Uiso       1.00
      C474          C  0.7950770  0.4562173  0.6155818    0.00000       Uiso       1.00
      C475          C  0.8151075  0.4567816  0.6151336    0.00000       Uiso       1.00
      C476          C  0.8142176  0.4593313  0.5954852    0.00000       Uiso       1.00
      C477          C  0.8347300  0.4589271  0.5949681    0.00000       Uiso       1.00
      C478          C  0.8570114  0.4545883  0.6135018    0.00000       Uiso       1.00
      C479          C  0.8576115  0.4515282  0.6328750    0.00000       Uiso       1.00
      C480          C  0.8366907  0.4543301  0.6349260    0.00000       Uiso       1.00
        O6          O  0.7727838  0.4579597  0.5975534    0.00000       Uiso       1.00
      H232          H  0.7974839  0.4617372  0.5805434    0.00000       Uiso       1.00
      H233          H  0.8328599  0.4618533  0.5798128    0.00000       Uiso       1.00
      H234          H  0.8746779  0.4455242  0.6457782    0.00000       Uiso       1.00
        B1          B  0.7598174  0.4556905  0.6076899    0.00000       Uiso       1.00
        B2          B  0.9694916  0.4556723  0.6078205    0.00000       Uiso       1.00
        B3          B  0.9693468  0.4556926  0.8173563    0.00000       Uiso       1.00
      C481          C  0.4531410  0.7960385  0.6146853    0.00000       Uiso       1.00
      C482          C  0.4519092  0.8166309  0.6136036    0.00000       Uiso       1.00
      C483          C  0.4495152  0.8172858  0.5922440    0.00000       Uiso       1.00
      C484          C  0.4495259  0.8376380  0.5918167    0.00000       Uiso       1.00
      C485          C  0.4532955  0.8573233  0.6130911    0.00000       Uiso       1.00
      C486          C  0.4560357  0.8561255  0.6344978    0.00000       Uiso       1.00
      C487          C  0.4536789  0.8368843  0.6348255    0.00000       Uiso       1.00
        O7          O  0.4526249  0.7744457  0.5958564    0.00000       Uiso       1.00
      H235          H  0.4476123  0.8019154  0.5758448    0.00000       Uiso       1.00
      H236          H  0.4468186  0.8375504  0.5747128    0.00000       Uiso       1.00
      H237          H  0.4615571  0.8695043  0.6513369    0.00000       Uiso       1.00
      C488          C  0.4530760  0.9427069  0.7811051    0.00000       Uiso       1.00
      C489          C  0.4518300  0.9222702  0.7605066    0.00000       Uiso       1.00
      C490          C  0.4494477  0.9026423  0.7598514    0.00000       Uiso       1.00
      C491          C  0.4494657  0.8818516  0.7394995    0.00000       Uiso       1.00
      C492          C  0.4532371  0.8796743  0.7198169    0.00000       Uiso       1.00
      C493          C  0.4559537  0.8995526  0.7210127    0.00000       Uiso       1.00
      C494          C  0.4535868  0.9214785  0.7402521    0.00000       Uiso       1.00
        O8          O  0.4525919  0.9459698  0.8027072    0.00000       Uiso       1.00
      H238          H  0.4475602  0.9035034  0.7752235    0.00000       Uiso       1.00
      H239          H  0.4467701  0.8675376  0.7395913    0.00000       Uiso       1.00
      H240          H  0.4614737  0.8975053  0.7076414    0.00000       Uiso       1.00
      C495          C  0.4530993  0.9624848  0.6344669    0.00000       Uiso       1.00
      C496          C  0.4518344  0.9635739  0.6548936    0.00000       Uiso       1.00
      C497          C  0.4494184  0.9849400  0.6745026    0.00000       Uiso       1.00
      C498          C  0.4494059  0.9853763  0.6952869    0.00000       Uiso       1.00
      C499          C  0.4531738  0.9641035  0.6974704    0.00000       Uiso       1.00
      C500          C  0.4559230  0.9426911  0.6776090    0.00000       Uiso       1.00
      C501          C  0.4535972  0.9423546  0.6556918    0.00000       Uiso       1.00
        O9          O  0.4525872  0.9813153  0.6311937    0.00000       Uiso       1.00
      H241          H  0.4475285  0.0013322  0.6736242    0.00000       Uiso       1.00
      H242          H  0.4466927  0.0024826  0.7095922    0.00000       Uiso       1.00
      H243          H  0.4614361  0.9258531  0.6796685    0.00000       Uiso       1.00
      C502          C  0.4562146  0.9414506  0.6155692    0.00000       Uiso       1.00
      C503          C  0.4567853  0.9204018  0.6151175    0.00000       Uiso       1.00
      C504          C  0.4593936  0.8990785  0.5954928    0.00000       Uiso       1.00
      C505          C  0.4590088  0.8784451  0.5949815    0.00000       Uiso       1.00
      C506          C  0.4546174  0.8790482  0.6134846    0.00000       Uiso       1.00
      C507          C  0.4514918  0.9008939  0.6328278    0.00000       Uiso       1.00
      C508          C  0.4542874  0.9210714  0.6348882    0.00000       Uiso       1.00
       O10          O  0.4579906  0.9439712  0.5975590    0.00000       Uiso       1.00
      H244          H  0.4618261  0.8984573  0.5805650    0.00000       Uiso       1.00
      H245          H  0.4619866  0.8622178  0.5798554    0.00000       Uiso       1.00
      H246          H  0.4454583  0.9027269  0.6457028    0.00000       Uiso       1.00
      C509          C  0.4561499  0.9616235  0.7820693    0.00000       Uiso       1.00
      C510          C  0.4566985  0.9620822  0.7620347    0.00000       Uiso       1.00
      C511          C  0.4592549  0.9817277  0.7629240    0.00000       Uiso       1.00
      C512          C  0.4588543  0.9822400  0.7424106    0.00000       Uiso       1.00
      C513          C  0.4545035  0.9637128  0.7201298    0.00000       Uiso       1.00
      C514          C  0.4514264  0.9443509  0.7195278    0.00000       Uiso       1.00
      C515          C  0.4542339  0.9422960  0.7404477    0.00000       Uiso       1.00
       O11          O  0.4579182  0.9796371  0.8043723    0.00000       Uiso       1.00
      H247          H  0.4616700  0.9966679  0.7796562    0.00000       Uiso       1.00
      H248          H  0.4617959  0.9973851  0.7442790    0.00000       Uiso       1.00
      H249          H  0.4454108  0.9314566  0.7024626    0.00000       Uiso       1.00
      C516          C  0.4562171  0.7950770  0.6357148    0.00000       Uiso       1.00
      C517          C  0.4567811  0.8151073  0.6567574    0.00000       Uiso       1.00
      C518          C  0.4593303  0.8142170  0.6780652    0.00000       Uiso       1.00
      C519          C  0.4589260  0.8347292  0.6986904    0.00000       Uiso       1.00
      C520          C  0.4545874  0.8570108  0.6980994    0.00000       Uiso       1.00
      C521          C  0.4515277  0.8576113  0.6762667    0.00000       Uiso       1.00
      C522          C  0.4543298  0.8366908  0.6560971    0.00000       Uiso       1.00
       O12          O  0.4579594  0.7727838  0.6331923    0.00000       Uiso       1.00
      H250          H  0.4617361  0.7974831  0.6786791    0.00000       Uiso       1.00
      H251          H  0.4618519  0.8328587  0.7149014    0.00000       Uiso       1.00
      H252          H  0.4455239  0.8746779  0.6744261    0.00000       Uiso       1.00
        B4          B  0.4556905  0.7598177  0.6078205    0.00000       Uiso       1.00
        B5          B  0.4556700  0.9694897  0.8173437    0.00000       Uiso       1.00
        B6          B  0.4556948  0.9693493  0.6076877    0.00000       Uiso       1.00
       Si1         Si  0.3822355  0.3822355  0.5695310    0.00000       Uiso       1.00
        B7          B  0.3365213  0.3903234  0.5407996    0.00000       Uiso       1.00
       O13          O  0.3547434  0.3793826  0.5591679    0.00000       Uiso       1.00
       O14          O  0.3793827  0.4022176  0.5591679    0.00000       Uiso       1.00
        B8          B  0.3903234  0.3911310  0.5407996    0.00000       Uiso       1.00
        B9          B  0.3911310  0.3365213  0.5407996    0.00000       Uiso       1.00
       O15          O  0.4022177  0.3547434  0.5591679    0.00000       Uiso       1.00
       O16          O  0.3411790  0.3888786  0.5213445    0.00000       Uiso       1.00
       O17          O  0.3888786  0.3684634  0.5213445    0.00000       Uiso       1.00
       O18          O  0.3684635  0.3411790  0.5213445    0.00000       Uiso       1.00
       Si2         Si  0.3628304  0.3628304  0.5113145    0.00000       Uiso       1.00
      C523          C  0.3933978  0.3933978  0.6030185    0.00000       Uiso       1.00
      C524          C  0.3516677  0.3516676  0.4778256    0.00000       Uiso       1.00
      H253          H  0.3804284  0.4111064  0.6096380    0.00000       Uiso       1.00
      H254          H  0.4111064  0.3952779  0.6096380    0.00000       Uiso       1.00
      H255          H  0.3952779  0.3804284  0.6096380    0.00000       Uiso       1.00
      H256          H  0.3654599  0.3348757  0.4712038    0.00000       Uiso       1.00
      H257          H  0.3480459  0.3654598  0.4712038    0.00000       Uiso       1.00
      H258          H  0.3348758  0.3480458  0.4712038    0.00000       Uiso       1.00
       Si3         Si  0.3822396  0.3822394  0.1949465    0.00000       Uiso       1.00
       B10          B  0.3903272  0.3365251  0.1860513    0.00000       Uiso       1.00
       O19          O  0.3793868  0.3547474  0.1749646    0.00000       Uiso       1.00
       O20          O  0.4022213  0.3793862  0.2224384    0.00000       Uiso       1.00
       B11          B  0.3911343  0.3903266  0.2406604    0.00000       Uiso       1.00
       B12          B  0.3365251  0.3911347  0.1868590    0.00000       Uiso       1.00
       O21          O  0.3547473  0.4022214  0.1977994    0.00000       Uiso       1.00
       O22          O  0.3888820  0.3411823  0.2087189    0.00000       Uiso       1.00
       O23          O  0.3684666  0.3888816  0.2360030    0.00000       Uiso       1.00
       O24          O  0.3411826  0.3684669  0.1883039    0.00000       Uiso       1.00
       Si4         Si  0.3628336  0.3628335  0.2143520    0.00000       Uiso       1.00
      C525          C  0.3934024  0.3934022  0.1837839    0.00000       Uiso       1.00
      C526          C  0.3516704  0.3516703  0.2255149    0.00000       Uiso       1.00
      H259          H  0.4111110  0.3804328  0.1819037    0.00000       Uiso       1.00
      H260          H  0.3952824  0.4111107  0.1967531    0.00000       Uiso       1.00
      H261          H  0.3804331  0.3952826  0.1660754    0.00000       Uiso       1.00
      H262          H  0.3348783  0.3654624  0.2291368    0.00000       Uiso       1.00
      H263          H  0.3654624  0.3480482  0.2423068    0.00000       Uiso       1.00
      H264          H  0.3480486  0.3348784  0.2117229    0.00000       Uiso       1.00
      C527          C  0.9624916  0.7960383  0.6344963    0.00000       Uiso       1.00
      C528          C  0.9635732  0.8166305  0.6549383    0.00000       Uiso       1.00
      C529          C  0.9849327  0.8172849  0.6745583    0.00000       Uiso       1.00
      C530          C  0.9853598  0.8376369  0.6953484    0.00000       Uiso       1.00
      C531          C  0.9640853  0.8573223  0.6975291    0.00000       Uiso       1.00
      C532          C  0.9426785  0.8561251  0.6776652    0.00000       Uiso       1.00
      C533          C  0.9423511  0.8368841  0.6557398    0.00000       Uiso       1.00
       O25          O  0.9813208  0.7744453  0.6312161    0.00000       Uiso       1.00
      H265          H  0.0013320  0.8019144  0.6736842    0.00000       Uiso       1.00
      H266          H  0.0024636  0.8375489  0.7096570    0.00000       Uiso       1.00
      H267          H  0.9258392  0.8695040  0.6797266    0.00000       Uiso       1.00
      C534          C  0.7960703  0.9427086  0.6146818    0.00000       Uiso       1.00
      C535          C  0.8166690  0.9222717  0.6135974    0.00000       Uiso       1.00
      C536          C  0.8173244  0.9026440  0.5922426    0.00000       Uiso       1.00
      C537          C  0.8376766  0.8818531  0.5918216    0.00000       Uiso       1.00
      C538          C  0.8573592  0.8796754  0.6130980    0.00000       Uiso       1.00
      C539          C  0.8561630  0.8995536  0.6344969    0.00000       Uiso       1.00
      C540          C  0.8369234  0.9214796  0.6348165    0.00000       Uiso       1.00
       O26          O  0.7744682  0.9459719  0.5958589    0.00000       Uiso       1.00
      H268          H  0.8019524  0.9035055  0.5758445    0.00000       Uiso       1.00
      H269          H  0.8375850  0.8675393  0.5747205    0.00000       Uiso       1.00
      H270          H  0.8695343  0.8975059  0.6513404    0.00000       Uiso       1.00
      C541          C  0.9427083  0.9624832  0.7811179    0.00000       Uiso       1.00
      C542          C  0.9222816  0.9635728  0.7605158    0.00000       Uiso       1.00
      C543          C  0.9026725  0.9849391  0.7598572    0.00000       Uiso       1.00
      C544          C  0.8818882  0.9853758  0.7394972    0.00000       Uiso       1.00
      C545          C  0.8797048  0.9641032  0.7198089    0.00000       Uiso       1.00
      C546          C  0.8995663  0.9426907  0.7210069    0.00000       Uiso       1.00
      C547          C  0.9214836  0.9423536  0.7402613    0.00000       Uiso       1.00
       O27          O  0.9459813  0.9813135  0.8027092    0.00000       Uiso       1.00
      H271          H  0.9035506  0.0013311  0.7752381    0.00000       Uiso       1.00
      H272          H  0.8675827  0.0024823  0.7395856    0.00000       Uiso       1.00
      H273          H  0.8975068  0.9258529  0.7076226    0.00000       Uiso       1.00
      C548          C  0.9616061  0.9414489  0.7820965    0.00000       Uiso       1.00
      C549          C  0.9620581  0.9204001  0.7620702    0.00000       Uiso       1.00
      C550          C  0.9816829  0.8990768  0.7629797    0.00000       Uiso       1.00
      C551          C  0.9821945  0.8784435  0.7424731    0.00000       Uiso       1.00
      C552          C  0.9636914  0.8790470  0.7201820    0.00000       Uiso       1.00
      C553          C  0.9443480  0.9008929  0.7195593    0.00000       Uiso       1.00
      C554          C  0.9422874  0.9210702  0.7404716    0.00000       Uiso       1.00
       O28          O  0.9796163  0.9439690  0.8044028    0.00000       Uiso       1.00
      H274          H  0.9966108  0.8984551  0.7797185    0.00000       Uiso       1.00
      H275          H  0.9973208  0.8622161  0.7443497    0.00000       Uiso       1.00
      H276          H  0.9314731  0.9027264  0.7024841    0.00000       Uiso       1.00
      C555          C  0.7951058  0.9616251  0.6357080    0.00000       Uiso       1.00
      C556          C  0.8151404  0.9620833  0.6567494    0.00000       Uiso       1.00
      C557          C  0.8142510  0.9817286  0.6780618    0.00000       Uiso       1.00
      C558          C  0.8347643  0.9822404  0.6986864    0.00000       Uiso       1.00
      C559          C  0.8570454  0.9637130  0.6980891    0.00000       Uiso       1.00
      C560          C  0.8576474  0.9443514  0.6762522    0.00000       Uiso       1.00
      C561          C  0.8367276  0.9422968  0.6560853    0.00000       Uiso       1.00
       O29          O  0.7728026  0.9796389  0.6331870    0.00000       Uiso       1.00
      H277          H  0.7975184  0.9966689  0.6786849    0.00000       Uiso       1.00
      H278          H  0.8328956  0.9973854  0.7149045    0.00000       Uiso       1.00
      H279          H  0.8747130  0.9314569  0.6744074    0.00000       Uiso       1.00
      C562          C  0.9414622  0.7950772  0.6155818    0.00000       Uiso       1.00
      C563          C  0.9204193  0.8151077  0.6151337    0.00000       Uiso       1.00
      C564          C  0.8991115  0.8142179  0.5954853    0.00000       Uiso       1.00
      C565          C  0.8784861  0.8347302  0.5949681    0.00000       Uiso       1.00
      C566          C  0.8790769  0.8570116  0.6135020    0.00000       Uiso       1.00
      C567          C  0.9009097  0.8576117  0.6328750    0.00000       Uiso       1.00
      C568          C  0.9210795  0.8366910  0.6349261    0.00000       Uiso       1.00
       O30          O  0.9439849  0.7727841  0.5975535    0.00000       Uiso       1.00
      H280          H  0.8984978  0.7974842  0.5805435    0.00000       Uiso       1.00
      H281          H  0.8622751  0.8328601  0.5798129    0.00000       Uiso       1.00
      H282          H  0.9027501  0.8746781  0.6457783    0.00000       Uiso       1.00
       B13          B  0.9693569  0.7598177  0.6076900    0.00000       Uiso       1.00
       B14          B  0.7598313  0.9694918  0.6078205    0.00000       Uiso       1.00
       B15          B  0.9694873  0.9693471  0.8173565    0.00000       Uiso       1.00
       Si5         Si  0.0076510  0.3822394  0.1949464    0.00000       Uiso       1.00
       B16          B  0.0363828  0.3903271  0.1860512    0.00000       Uiso       1.00
       O31          O  0.0180144  0.3793866  0.1749645    0.00000       Uiso       1.00
       O32          O  0.0180139  0.4022211  0.2224383    0.00000       Uiso       1.00
       B17          B  0.0363822  0.3911341  0.2406604    0.00000       Uiso       1.00
       B18          B  0.0363828  0.3365250  0.1868589    0.00000       Uiso       1.00
       O33          O  0.0180141  0.3547471  0.1977993    0.00000       Uiso       1.00
       O34          O  0.0558378  0.3888818  0.2087188    0.00000       Uiso       1.00
       O35          O  0.0558375  0.3684664  0.2360029    0.00000       Uiso       1.00
       O36          O  0.0558380  0.3411825  0.1883038    0.00000       Uiso       1.00
       Si6         Si  0.0658680  0.3628334  0.2143519    0.00000       Uiso       1.00
      C569          C  0.9741635  0.3934021  0.1837838    0.00000       Uiso       1.00
      C570          C  0.0993571  0.3516702  0.2255148    0.00000       Uiso       1.00
      H283          H  0.9675439  0.4111108  0.1819036    0.00000       Uiso       1.00
      H284          H  0.9675437  0.3952822  0.1967530    0.00000       Uiso       1.00
      H285          H  0.9675441  0.3804330  0.1660753    0.00000       Uiso       1.00
      H286          H  0.1059789  0.3348782  0.2291367    0.00000       Uiso       1.00
      H287          H  0.1059787  0.3654622  0.2423067    0.00000       Uiso       1.00
      H288          H  0.1059791  0.3480485  0.2117229    0.00000       Uiso       1.00
      C571          C  0.9426756  0.7960335  0.1240309    0.00000       Uiso       1.00
      C572          C  0.9222335  0.8166259  0.1252628    0.00000       Uiso       1.00
      C573          C  0.9026131  0.8172805  0.1276570    0.00000       Uiso       1.00
      C574          C  0.8818229  0.8376328  0.1276463    0.00000       Uiso       1.00
      C575          C  0.8796421  0.8573183  0.1238765    0.00000       Uiso       1.00
      C576          C  0.8995063  0.8561208  0.1211361    0.00000       Uiso       1.00
      C577          C  0.9214319  0.8368795  0.1234929    0.00000       Uiso       1.00
       O37          O  0.9459559  0.7744405  0.1245473    0.00000       Uiso       1.00
      H289          H  0.9034873  0.8019099  0.1295600    0.00000       Uiso       1.00
      H290          H  0.8675140  0.8375449  0.1303537    0.00000       Uiso       1.00
      H291          H  0.8974450  0.8694998  0.1156145    0.00000       Uiso       1.00
      C578          C  0.9624904  0.9427036  0.1240942    0.00000       Uiso       1.00
      C579          C  0.9635748  0.9222667  0.1253404    0.00000       Uiso       1.00
      C580          C  0.9849297  0.9026388  0.1277227    0.00000       Uiso       1.00
      C581          C  0.9853508  0.8818478  0.1277049    0.00000       Uiso       1.00
      C582          C  0.9640743  0.8796704  0.1239337    0.00000       Uiso       1.00
      C583          C  0.9426751  0.8995488  0.1212171    0.00000       Uiso       1.00
      C584          C  0.9423554  0.9214748  0.1235838    0.00000       Uiso       1.00
       O38          O  0.9813134  0.9459667  0.1245780    0.00000       Uiso       1.00
      H292          H  0.0013278  0.9035000  0.1296099    0.00000       Uiso       1.00
      H293          H  0.0024519  0.8675339  0.1304005    0.00000       Uiso       1.00
      H294          H  0.9258314  0.8975013  0.1156973    0.00000       Uiso       1.00
      C585          C  0.7960525  0.9624799  0.1240724    0.00000       Uiso       1.00
      C586          C  0.8166547  0.9635693  0.1253371    0.00000       Uiso       1.00
      C587          C  0.8173134  0.9849356  0.1277529    0.00000       Uiso       1.00
      C588          C  0.8376737  0.9853721  0.1277651    0.00000       Uiso       1.00
      C589          C  0.8573621  0.9640993  0.1239972    0.00000       Uiso       1.00
      C590          C  0.8561642  0.9426867  0.1212483    0.00000       Uiso       1.00
      C591          C  0.8369095  0.9423499  0.1235743    0.00000       Uiso       1.00
       O39          O  0.7744610  0.9813104  0.1245845    0.00000       Uiso       1.00
      H295          H  0.8019323  0.0013277  0.1296428    0.00000       Uiso       1.00
      H296          H  0.8375852  0.0024785  0.1304782    0.00000       Uiso       1.00
      H297          H  0.8695486  0.9258489  0.1157352    0.00000       Uiso       1.00
      C592          C  0.7950739  0.9414456  0.1209574    0.00000       Uiso       1.00
      C593          C  0.8151003  0.9203967  0.1203867    0.00000       Uiso       1.00
      C594          C  0.8141909  0.8990734  0.1177786    0.00000       Uiso       1.00
      C595          C  0.8346977  0.8784400  0.1181634    0.00000       Uiso       1.00
      C596          C  0.8569891  0.8790432  0.1225547    0.00000       Uiso       1.00
      C597          C  0.8576118  0.9008890  0.1256799    0.00000       Uiso       1.00
      C598          C  0.8366992  0.9210666  0.1228844    0.00000       Uiso       1.00
       O40          O  0.7727674  0.9439660  0.1191816    0.00000       Uiso       1.00
      H298          H  0.7974520  0.8984520  0.1153463    0.00000       Uiso       1.00
      H299          H  0.8328212  0.8622125  0.1151858    0.00000       Uiso       1.00
      H300          H  0.8746871  0.9027221  0.1317133    0.00000       Uiso       1.00
      C599          C  0.9414640  0.9616203  0.1210203    0.00000       Uiso       1.00
      C600          C  0.9204223  0.9620788  0.1204719    0.00000       Uiso       1.00
      C601          C  0.8991097  0.9817243  0.1179155    0.00000       Uiso       1.00
      C602          C  0.8784849  0.9822364  0.1183163    0.00000       Uiso       1.00
      C603          C  0.8790823  0.9637089  0.1226673    0.00000       Uiso       1.00
      C604          C  0.9009193  0.9443470  0.1257443    0.00000       Uiso       1.00
      C605          C  0.9210865  0.9422923  0.1229368    0.00000       Uiso       1.00
       O41          O  0.9439850  0.9796341  0.1192518    0.00000       Uiso       1.00
      H301          H  0.8984867  0.9966647  0.1155003    0.00000       Uiso       1.00
      H302          H  0.8622666  0.9973816  0.1153747    0.00000       Uiso       1.00
      H303          H  0.9027641  0.9314524  0.1317601    0.00000       Uiso       1.00
      C606          C  0.9615903  0.7950723  0.1209547    0.00000       Uiso       1.00
      C607          C  0.9620385  0.8151027  0.1203904    0.00000       Uiso       1.00
      C608          C  0.9816871  0.8142127  0.1178410    0.00000       Uiso       1.00
      C609          C  0.9822043  0.8347251  0.1182451    0.00000       Uiso       1.00
      C610          C  0.9636703  0.8570067  0.1225837    0.00000       Uiso       1.00
      C611          C  0.9442970  0.8576069  0.1256436    0.00000       Uiso       1.00
      C612          C  0.9422459  0.8366862  0.1228417    0.00000       Uiso       1.00
       O42          O  0.9796189  0.7727789  0.1192125    0.00000       Uiso       1.00
      H304          H  0.9966292  0.7974789  0.1154352    0.00000       Uiso       1.00
      H305          H  0.9973597  0.8328548  0.1153191    0.00000       Uiso       1.00
      H306          H  0.9313934  0.8746734  0.1316473    0.00000       Uiso       1.00
       B19          B  0.9694822  0.7598127  0.1214816    0.00000       Uiso       1.00
       B20          B  0.9693518  0.9694868  0.1214997    0.00000       Uiso       1.00
       B21          B  0.7598136  0.9693443  0.1214772    0.00000       Uiso       1.00
       Si7         Si  0.3822293  0.0076407  0.1949363    0.00000       Uiso       1.00
       B22          B  0.3903164  0.0363719  0.2406503    0.00000       Uiso       1.00
       O43          O  0.3793760  0.0180036  0.2224282    0.00000       Uiso       1.00
       O44          O  0.4022113  0.0180038  0.1977892    0.00000       Uiso       1.00
       B23          B  0.3911245  0.0363725  0.1868488    0.00000       Uiso       1.00
       B24          B  0.3365149  0.0363725  0.1860412    0.00000       Uiso       1.00
       O45          O  0.3547373  0.0180041  0.1749545    0.00000       Uiso       1.00
       O46          O  0.3888714  0.0558272  0.2359928    0.00000       Uiso       1.00
       O47          O  0.3684568  0.0558277  0.1882937    0.00000       Uiso       1.00
       O48          O  0.3411721  0.0558275  0.2087087    0.00000       Uiso       1.00
       Si8         Si  0.3628233  0.0658577  0.2143418    0.00000       Uiso       1.00
      C613          C  0.3933920  0.9741535  0.1837738    0.00000       Uiso       1.00
      C614          C  0.3516601  0.0993468  0.2255047    0.00000       Uiso       1.00
      H307          H  0.4111005  0.9675338  0.1967430    0.00000       Uiso       1.00
      H308          H  0.3952724  0.9675341  0.1660653    0.00000       Uiso       1.00
      H309          H  0.3804227  0.9675339  0.1818936    0.00000       Uiso       1.00
      H310          H  0.3348682  0.1059687  0.2117127    0.00000       Uiso       1.00
      H311          H  0.3654522  0.1059686  0.2291266    0.00000       Uiso       1.00
      H312          H  0.3480380  0.1059684  0.2422966    0.00000       Uiso       1.00
