data_7
_audit_creation_date              0000-00-00
_audit_creation_method            'LanYouShi'
_symmetry_space_group_name_H-M    'P1'
_cell_length_a                    68.7356033
_cell_length_b                    59.5264015
_cell_length_c                    59.5264015
_cell_angle_alpha                 109.4722977
_cell_angle_beta                  54.7354012
_cell_angle_gamma                 125.2647018
loop_
_atom_site_label
_atom_site_type_symbol
_atom_site_fract_x
_atom_site_fract_y
_atom_site_fract_z
_atom_site_U_iso_or_equiv
_atom_site_adp_type
_atom_site_occupancy
        C1          C  0.5000006  0.5000001  0.4999993    0.00000       Uiso       1.00
        C2          C  0.3913093  0.3707519  0.5276559    0.00000       Uiso       1.00
        C3          C  0.4198270  0.3805867  0.5146734    0.00000       Uiso       1.00
        C4          C  0.4292113  0.3615054  0.5046033    0.00000       Uiso       1.00
        C5          C  0.4102803  0.3329287  0.5077899    0.00000       Uiso       1.00
        C6          C  0.3817104  0.3230939  0.5210727    0.00000       Uiso       1.00
        C7          C  0.3723327  0.3421687  0.5309796    0.00000       Uiso       1.00
        H1          H  0.3835576  0.3849813  0.5351857    0.00000       Uiso       1.00
        H2          H  0.3503779  0.3350505  0.5411671    0.00000       Uiso       1.00
        H3          H  0.4512052  0.3687476  0.4942656    0.00000       Uiso       1.00
        C8          C  0.4460869  0.5654995  0.5392389    0.00000       Uiso       1.00
        C9          C  0.4517872  0.5810347  0.5205561    0.00000       Uiso       1.00
       C10          C  0.4276914  0.5661854  0.5677046    0.00000       Uiso       1.00
       C11          C  0.4148591  0.5819297  0.5773503    0.00000       Uiso       1.00
       C12          C  0.4203113  0.5972167  0.5586152    0.00000       Uiso       1.00
       C13          C  0.4388570  0.5966876  0.5301626    0.00000       Uiso       1.00
        H4          H  0.4662385  0.5812566  0.4985750    0.00000       Uiso       1.00
        H5          H  0.4435061  0.6084549  0.5153261    0.00000       Uiso       1.00
        H6          H  0.4232774  0.5545291  0.5824562    0.00000       Uiso       1.00
       C14          C  0.5801741  0.5146742  0.3805861    0.00000       Uiso       1.00
       C15          C  0.6086918  0.5276567  0.3707513    0.00000       Uiso       1.00
       C16          C  0.5707898  0.5046040  0.3615048    0.00000       Uiso       1.00
       C17          C  0.5897207  0.5077906  0.3329282    0.00000       Uiso       1.00
       C18          C  0.6182906  0.5210735  0.3230933    0.00000       Uiso       1.00
       C19          C  0.6276684  0.5309804  0.3421682    0.00000       Uiso       1.00
        H7          H  0.6164435  0.5351865  0.3849806    0.00000       Uiso       1.00
        H8          H  0.6496232  0.5411679  0.3350500    0.00000       Uiso       1.00
        H9          H  0.5487958  0.4942664  0.3687470    0.00000       Uiso       1.00
       C20          C  0.5539146  0.5392398  0.5654986    0.00000       Uiso       1.00
       C21          C  0.5482143  0.5205569  0.5810338    0.00000       Uiso       1.00
       C22          C  0.5723101  0.5677055  0.5661845    0.00000       Uiso       1.00
       C23          C  0.5851424  0.5773512  0.5819288    0.00000       Uiso       1.00
       C24          C  0.5796903  0.5586161  0.5972158    0.00000       Uiso       1.00
       C25          C  0.5611445  0.5301635  0.5966867    0.00000       Uiso       1.00
       H10          H  0.5337630  0.4985759  0.5812557    0.00000       Uiso       1.00
       H11          H  0.5564954  0.5153269  0.6084540    0.00000       Uiso       1.00
       H12          H  0.5767241  0.5824571  0.5545282    0.00000       Uiso       1.00
        F1          F  0.4207939  0.3134207  0.4970540    0.00000       Uiso       1.00
        F2          F  0.6044284  0.6073729  0.5821510    0.00000       Uiso       1.00
        F3          F  0.5792070  0.4970548  0.3134201    0.00000       Uiso       1.00
        F4          F  0.3955733  0.5821519  0.6073719    0.00000       Uiso       1.00
       C26          C  0.4580362  0.4563606  0.4974301    0.00000       Uiso       1.00
       C27          C  0.4792273  0.4684643  0.5035558    0.00000       Uiso       1.00
       C28          C  0.4819986  0.4504151  0.5106208    0.00000       Uiso       1.00
       C29          C  0.4626161  0.4222305  0.5146163    0.00000       Uiso       1.00
       C30          C  0.4402872  0.4107840  0.5106691    0.00000       Uiso       1.00
       C31          C  0.4384936  0.4281668  0.5015955    0.00000       Uiso       1.00
       H13          H  0.4222726  0.4198245  0.4971635    0.00000       Uiso       1.00
       H14          H  0.4991802  0.4580235  0.5131869    0.00000       Uiso       1.00
       H15          H  0.4650192  0.4093606  0.5210106    0.00000       Uiso       1.00
       C32          C  0.4856817  0.5172169  0.5107617    0.00000       Uiso       1.00
       C33          C  0.5008947  0.5445335  0.5016742    0.00000       Uiso       1.00
       C34          C  0.4577964  0.5073807  0.5315822    0.00000       Uiso       1.00
       C35          C  0.4449987  0.5227676  0.5403845    0.00000       Uiso       1.00
       C36          C  0.4598283  0.5490437  0.5295019    0.00000       Uiso       1.00
       C37          C  0.4880782  0.5599107  0.5103254    0.00000       Uiso       1.00
       H16          H  0.5003889  0.5805637  0.5024465    0.00000       Uiso       1.00
       H17          H  0.4456570  0.4876329  0.5411556    0.00000       Uiso       1.00
       H18          H  0.4233314  0.5139703  0.5556575    0.00000       Uiso       1.00
       C38          C  0.5207739  0.5035565  0.4684635    0.00000       Uiso       1.00
       C39          C  0.5419649  0.4974310  0.4563599    0.00000       Uiso       1.00
       C40          C  0.5180026  0.5106214  0.4504144    0.00000       Uiso       1.00
       C41          C  0.5373850  0.5146170  0.4222298    0.00000       Uiso       1.00
       C42          C  0.5597139  0.5106698  0.4107834    0.00000       Uiso       1.00
       C43          C  0.5615076  0.5015964  0.4281662    0.00000       Uiso       1.00
       H19          H  0.5777287  0.4971646  0.4198239    0.00000       Uiso       1.00
       H20          H  0.5008210  0.5131876  0.4580227    0.00000       Uiso       1.00
       H21          H  0.5349820  0.5210114  0.4093599    0.00000       Uiso       1.00
       C44          C  0.5143197  0.5107626  0.5172161    0.00000       Uiso       1.00
       C45          C  0.4991066  0.5016752  0.5445327    0.00000       Uiso       1.00
       C46          C  0.5422050  0.5315830  0.5073799    0.00000       Uiso       1.00
       C47          C  0.5550028  0.5403852  0.5227667    0.00000       Uiso       1.00
       C48          C  0.5401731  0.5295027  0.5490428    0.00000       Uiso       1.00
       C49          C  0.5119233  0.5103263  0.5599099    0.00000       Uiso       1.00
       H22          H  0.4996125  0.5024476  0.5805629    0.00000       Uiso       1.00
       H23          H  0.5543445  0.5411564  0.4876321    0.00000       Uiso       1.00
       H24          H  0.5766701  0.5556582  0.5139694    0.00000       Uiso       1.00
        F5          F  0.4689426  0.4819175  0.5573308    0.00000       Uiso       1.00
        F6          F  0.4556445  0.4737266  0.4870238    0.00000       Uiso       1.00
        F7          F  0.5443569  0.4870249  0.4737259    0.00000       Uiso       1.00
        F8          F  0.5310587  0.5573316  0.4819164    0.00000       Uiso       1.00
       C50          C  0.6250059  0.3749979  0.8749913    0.00000       Uiso       1.00
       C51          C  0.6455619  0.4232118  0.9836841    0.00000       Uiso       1.00
       C52          C  0.6642446  0.4289126  0.9551662    0.00000       Uiso       1.00
       C53          C  0.6927100  0.4473086  0.9457821    0.00000       Uiso       1.00
       C54          C  0.7023554  0.4601411  0.9647133    0.00000       Uiso       1.00
       C55          C  0.6836205  0.4546885  0.9932833    0.00000       Uiso       1.00
       C56          C  0.6551670  0.4361418  0.0026624    0.00000       Uiso       1.00
       H25          H  0.6235811  0.4087601  0.9914356    0.00000       Uiso       1.00
       H26          H  0.6403306  0.4314924  0.0246173    0.00000       Uiso       1.00
       H27          H  0.7074615  0.4517229  0.9237880    0.00000       Uiso       1.00
       C57          C  0.5055941  0.2948219  0.9289044    0.00000       Uiso       1.00
       C58          C  0.4957599  0.2663040  0.9232031    0.00000       Uiso       1.00
       C59          C  0.4865126  0.3042058  0.9473006    0.00000       Uiso       1.00
       C60          C  0.4579363  0.2852743  0.9601327    0.00000       Uiso       1.00
       C61          C  0.4481020  0.2567042  0.9546795    0.00000       Uiso       1.00
       C62          C  0.4671771  0.2473268  0.9361331    0.00000       Uiso       1.00
       H28          H  0.5099894  0.2585526  0.9087512    0.00000       Uiso       1.00
       H29          H  0.4600593  0.2253719  0.9314833    0.00000       Uiso       1.00
       H30          H  0.4937545  0.3261999  0.9517152    0.00000       Uiso       1.00
       C63          C  0.6905062  0.3210852  0.7948144    0.00000       Uiso       1.00
       C64          C  0.7060412  0.3267859  0.7662967    0.00000       Uiso       1.00
       C65          C  0.6911924  0.3026897  0.8041980    0.00000       Uiso       1.00
       C66          C  0.7069370  0.2898577  0.7852663    0.00000       Uiso       1.00
       C67          C  0.7222239  0.2953102  0.7566963    0.00000       Uiso       1.00
       C68          C  0.7216944  0.3138559  0.7473193    0.00000       Uiso       1.00
       H31          H  0.7062628  0.3412371  0.7585456    0.00000       Uiso       1.00
       H32          H  0.7334616  0.3185053  0.7253644    0.00000       Uiso       1.00
       H33          H  0.6795363  0.2982755  0.8261919    0.00000       Uiso       1.00
       C69          C  0.6396785  0.4551717  0.8210804    0.00000       Uiso       1.00
       C70          C  0.6526604  0.4836897  0.8267816    0.00000       Uiso       1.00
       C71          C  0.6296085  0.4457872  0.8026848    0.00000       Uiso       1.00
       C72          C  0.6327946  0.4647182  0.7898531    0.00000       Uiso       1.00
       C73          C  0.6460770  0.4932884  0.7953062    0.00000       Uiso       1.00
       C74          C  0.6559837  0.5026664  0.8138521    0.00000       Uiso       1.00
       H34          H  0.6601901  0.4914415  0.8412330    0.00000       Uiso       1.00
       H35          H  0.6661708  0.5246213  0.8185018    0.00000       Uiso       1.00
       H36          H  0.6192712  0.4237930  0.7982701    0.00000       Uiso       1.00
        F9          F  0.7323766  0.4794275  0.9541999    0.00000       Uiso       1.00
       F10          F  0.6220590  0.4542044  0.7705671    0.00000       Uiso       1.00
       F11          F  0.7071595  0.2705719  0.7957791    0.00000       Uiso       1.00
       F12          F  0.4384281  0.2957875  0.9794193    0.00000       Uiso       1.00
       C75          C  0.6266810  0.3741038  0.9169556    0.00000       Uiso       1.00
       C76          C  0.6357680  0.3893170  0.8957650    0.00000       Uiso       1.00
       C77          C  0.6565879  0.4172028  0.8929945    0.00000       Uiso       1.00
       C78          C  0.6653899  0.4300008  0.9123772    0.00000       Uiso       1.00
       C79          C  0.6545078  0.4151708  0.9347056    0.00000       Uiso       1.00
       C80          C  0.6353319  0.3869206  0.9364985    0.00000       Uiso       1.00
       H37          H  0.6274535  0.3746097  0.9527192    0.00000       Uiso       1.00
       H38          H  0.6661610  0.4293425  0.8758131    0.00000       Uiso       1.00
       H39          H  0.6806625  0.4516684  0.9099748    0.00000       Uiso       1.00
       C81          C  0.5934705  0.3542239  0.8893102    0.00000       Uiso       1.00
       C82          C  0.5813673  0.3330325  0.8740965    0.00000       Uiso       1.00
       C83          C  0.5754213  0.3569949  0.9171959    0.00000       Uiso       1.00
       C84          C  0.5472370  0.3376119  0.9299935    0.00000       Uiso       1.00
       C85          C  0.5357910  0.3152827  0.9151631    0.00000       Uiso       1.00
       C86          C  0.5531738  0.3134893  0.8869128    0.00000       Uiso       1.00
       H40          H  0.5448319  0.2972681  0.8746017    0.00000       Uiso       1.00
       H41          H  0.5830293  0.3741768  0.9293358    0.00000       Uiso       1.00
       H42          H  0.5343671  0.3400149  0.9516610    0.00000       Uiso       1.00
       C87          C  0.6422229  0.3606792  0.8542172    0.00000       Uiso       1.00
       C88          C  0.6695393  0.3758928  0.8330262    0.00000       Uiso       1.00
       C89          C  0.6323873  0.3327937  0.8569875    0.00000       Uiso       1.00
       C90          C  0.6477744  0.3199962  0.8376043    0.00000       Uiso       1.00
       C91          C  0.6740502  0.3348264  0.8152755    0.00000       Uiso       1.00
       C92          C  0.6849167  0.3630765  0.8134827    0.00000       Uiso       1.00
       H43          H  0.7055694  0.3753876  0.7972617    0.00000       Uiso       1.00
       H44          H  0.6126397  0.3206538  0.8741691    0.00000       Uiso       1.00
       H45          H  0.6389774  0.2983287  0.8400066    0.00000       Uiso       1.00
       C93          C  0.6285620  0.3957712  0.8606731    0.00000       Uiso       1.00
       C94          C  0.6224359  0.4169621  0.8758871    0.00000       Uiso       1.00
       C95          C  0.6356269  0.3930000  0.8327876    0.00000       Uiso       1.00
       C96          C  0.6396220  0.4123826  0.8199905    0.00000       Uiso       1.00
       C97          C  0.6356744  0.4347114  0.8348212    0.00000       Uiso       1.00
       C98          C  0.6266009  0.4365048  0.8630713    0.00000       Uiso       1.00
       H46          H  0.6221686  0.4527258  0.8753827    0.00000       Uiso       1.00
       H47          H  0.6381932  0.3758184  0.8206474    0.00000       Uiso       1.00
       H48          H  0.6460163  0.4099796  0.7983230    0.00000       Uiso       1.00
       F13          F  0.6120295  0.4193537  0.9060515    0.00000       Uiso       1.00
       F14          F  0.6069238  0.3439394  0.9193466    0.00000       Uiso       1.00
       F15          F  0.6823367  0.4060571  0.8306352    0.00000       Uiso       1.00
       F16          F  0.5987332  0.3306410  0.8439321    0.00000       Uiso       1.00
       C99          C  0.8750004  0.0000029  0.7500063    0.00000       Uiso       1.00
      C100          C  0.8473407  0.0810371  0.7294542    0.00000       Uiso       1.00
      C101          C  0.8603230  0.0655015  0.7107707    0.00000       Uiso       1.00
      C102          C  0.8703923  0.0661868  0.6823052    0.00000       Uiso       1.00
      C103          C  0.8672050  0.0819309  0.6726604    0.00000       Uiso       1.00
      C104          C  0.8539223  0.0972184  0.6913962    0.00000       Uiso       1.00
      C105          C  0.8440163  0.0966898  0.7198486    0.00000       Uiso       1.00
       H49          H  0.8398116  0.0812594  0.7514351    0.00000       Uiso       1.00
       H50          H  0.8338290  0.1084574  0.7346858    0.00000       Uiso       1.00
       H51          H  0.8807298  0.0545302  0.6675529    0.00000       Uiso       1.00
      C106          C  0.8357644  0.0146795  0.8694193    0.00000       Uiso       1.00
      C107          C  0.8544478  0.0276622  0.8792537    0.00000       Uiso       1.00
      C108          C  0.8072992  0.0046097  0.8885009    0.00000       Uiso       1.00
      C109          C  0.7976543  0.0077968  0.9170775    0.00000       Uiso       1.00
      C110          C  0.8163900  0.0210799  0.9269120    0.00000       Uiso       1.00
      C111          C  0.8448422  0.0309864  0.9078367    0.00000       Uiso       1.00
       H52          H  0.8764287  0.0351917  0.8650240    0.00000       Uiso       1.00
       H53          H  0.8596792  0.0411741  0.9149547    0.00000       Uiso       1.00
       H54          H  0.7925478  0.9942715  0.8812590    0.00000       Uiso       1.00
      C112          C  0.9944125  0.0392412  0.6845052    0.00000       Uiso       1.00
      C113          C  0.0042479  0.0205581  0.6689692    0.00000       Uiso       1.00
      C114          C  0.0134943  0.0677069  0.6838197    0.00000       Uiso       1.00
      C115          C  0.0420708  0.0773523  0.6680749    0.00000       Uiso       1.00
      C116          C  0.0519055  0.0586169  0.6527870    0.00000       Uiso       1.00
      C117          C  0.0328309  0.0301643  0.6533158    0.00000       Uiso       1.00
       H55          H  0.9900188  0.9985766  0.6687469    0.00000       Uiso       1.00
       H56          H  0.0399490  0.0153275  0.6415479    0.00000       Uiso       1.00
       H57          H  0.0062522  0.0824588  0.6954765    0.00000       Uiso       1.00
      C118          C  0.8095021  0.8805889  0.7353303    0.00000       Uiso       1.00
      C119          C  0.7939662  0.8707538  0.7223483    0.00000       Uiso       1.00
      C120          C  0.8088170  0.8615078  0.7453995    0.00000       Uiso       1.00
      C121          C  0.7930727  0.8329310  0.7422126    0.00000       Uiso       1.00
      C122          C  0.7777850  0.8230959  0.7289302    0.00000       Uiso       1.00
      C123          C  0.7783134  0.8421705  0.7190242    0.00000       Uiso       1.00
       H58          H  0.7937437  0.8849831  0.7148193    0.00000       Uiso       1.00
       H59          H  0.7665457  0.8350522  0.7088370    0.00000       Uiso       1.00
       H60          H  0.8204737  0.8687502  0.7557368    0.00000       Uiso       1.00
       F17          F  0.8779397  0.0821525  0.6426389    0.00000       Uiso       1.00
       F18          F  0.7928513  0.8134232  0.7529474    0.00000       Uiso       1.00
       F19          F  0.0615786  0.1073740  0.6678531    0.00000       Uiso       1.00
       F20          F  0.7676339  0.9970610  0.9365860    0.00000       Uiso       1.00
      C124          C  0.8775686  0.0445363  0.7483330    0.00000       Uiso       1.00
      C125          C  0.8714429  0.0172194  0.7392449    0.00000       Uiso       1.00
      C126          C  0.8643772  0.0073828  0.7184249    0.00000       Uiso       1.00
      C127          C  0.8603809  0.0227695  0.7096236    0.00000       Uiso       1.00
      C128          C  0.8643283  0.0490459  0.7205067    0.00000       Uiso       1.00
      C129          C  0.8734025  0.0599134  0.7396828    0.00000       Uiso       1.00
       H61          H  0.8778346  0.0805666  0.7475619    0.00000       Uiso       1.00
       H62          H  0.8618118  0.9876345  0.7088510    0.00000       Uiso       1.00
       H63          H  0.8539861  0.0139718  0.6943508    0.00000       Uiso       1.00
      C130          C  0.8642389  0.0035600  0.7815420    0.00000       Uiso       1.00
      C131          C  0.8733279  0.9974344  0.7936448    0.00000       Uiso       1.00
      C132          C  0.8434186  0.0106252  0.7995920    0.00000       Uiso       1.00
      C133          C  0.8346172  0.0146213  0.8277765    0.00000       Uiso       1.00
      C134          C  0.8455005  0.0106744  0.8392221    0.00000       Uiso       1.00
      C135          C  0.8646770  0.0016008  0.8218385    0.00000       Uiso       1.00
       H64          H  0.8725570  0.9971687  0.8301802    0.00000       Uiso       1.00
       H65          H  0.8338445  0.0131910  0.7919842    0.00000       Uiso       1.00
       H66          H  0.8193443  0.0210157  0.8406470    0.00000       Uiso       1.00
      C136          C  0.9065359  0.0107650  0.7327890    0.00000       Uiso       1.00
      C137          C  0.9186388  0.0016770  0.7054722    0.00000       Uiso       1.00
      C138          C  0.9245854  0.0315856  0.7426251    0.00000       Uiso       1.00
      C139          C  0.9527698  0.0403876  0.7272378    0.00000       Uiso       1.00
      C140          C  0.9642155  0.0295045  0.7009614    0.00000       Uiso       1.00
      C141          C  0.9468323  0.0103278  0.6900945    0.00000       Uiso       1.00
       H67          H  0.9551740  0.0024485  0.6694413    0.00000       Uiso       1.00
       H68          H  0.9169775  0.0411594  0.7623732    0.00000       Uiso       1.00
       H69          H  0.9656400  0.0556606  0.7360351    0.00000       Uiso       1.00
      C142          C  0.8577844  0.9684666  0.7464493    0.00000       Uiso       1.00
      C143          C  0.8304676  0.9563631  0.7525755    0.00000       Uiso       1.00
      C144          C  0.8676209  0.9504174  0.7393835    0.00000       Uiso       1.00
      C145          C  0.8522340  0.9222326  0.7353875    0.00000       Uiso       1.00
      C146          C  0.8259578  0.9107863  0.7393352    0.00000       Uiso       1.00
      C147          C  0.8150905  0.9281693  0.7484096    0.00000       Uiso       1.00
       H70          H  0.7944374  0.9198270  0.7528421    0.00000       Uiso       1.00
       H71          H  0.8873687  0.9580256  0.7368170    0.00000       Uiso       1.00
       H72          H  0.8610315  0.9093626  0.7289926    0.00000       Uiso       1.00
       F21          F  0.8176693  0.9737293  0.7629828    0.00000       Uiso       1.00
       F22          F  0.8879757  0.0573348  0.7680904    0.00000       Uiso       1.00
       F23          F  0.9012730  0.9819185  0.6926742    0.00000       Uiso       1.00
       F24          F  0.8930856  0.9870279  0.7762780    0.00000       Uiso       1.00
      C148          C  0.3749959  0.8749924  0.3749970    0.00000       Uiso       1.00
      C149          C  0.3544402  0.9836853  0.4232109    0.00000       Uiso       1.00
      C150          C  0.3357575  0.9551675  0.4289115    0.00000       Uiso       1.00
      C151          C  0.3072921  0.9457833  0.4473076    0.00000       Uiso       1.00
      C152          C  0.2976467  0.9647145  0.4601401    0.00000       Uiso       1.00
      C153          C  0.3163817  0.9932846  0.4546875    0.00000       Uiso       1.00
      C154          C  0.3448332  0.0026626  0.4361413    0.00000       Uiso       1.00
       H73          H  0.3764209  0.9914368  0.4087592    0.00000       Uiso       1.00
       H74          H  0.3596697  0.0246175  0.4314919    0.00000       Uiso       1.00
       H75          H  0.2925406  0.9237893  0.4517219    0.00000       Uiso       1.00
      C155          C  0.4944076  0.9289055  0.2948211    0.00000       Uiso       1.00
      C156          C  0.5042418  0.9232042  0.2663033    0.00000       Uiso       1.00
      C157          C  0.5134891  0.9473017  0.3042050    0.00000       Uiso       1.00
      C158          C  0.5420654  0.9601339  0.2852736    0.00000       Uiso       1.00
      C159          C  0.5518996  0.9546807  0.2567035    0.00000       Uiso       1.00
      C160          C  0.5328246  0.9361343  0.2473261    0.00000       Uiso       1.00
       H76          H  0.4900123  0.9087524  0.2585519    0.00000       Uiso       1.00
       H77          H  0.5399423  0.9314845  0.2253712    0.00000       Uiso       1.00
       H78          H  0.5062473  0.9517165  0.3261991    0.00000       Uiso       1.00
      C161          C  0.3094953  0.7948154  0.3210844    0.00000       Uiso       1.00
      C162          C  0.2939602  0.7662976  0.3267851    0.00000       Uiso       1.00
      C163          C  0.3088091  0.8041989  0.3026890    0.00000       Uiso       1.00
      C164          C  0.2930645  0.7852672  0.2898570    0.00000       Uiso       1.00
      C165          C  0.2777775  0.7566972  0.2953095    0.00000       Uiso       1.00
      C166          C  0.2783071  0.7473202  0.3138551    0.00000       Uiso       1.00
       H79          H  0.2937387  0.7585465  0.3412363    0.00000       Uiso       1.00
       H80          H  0.2665398  0.7253653  0.3185045    0.00000       Uiso       1.00
       H81          H  0.3204653  0.8261929  0.2982748    0.00000       Uiso       1.00
      C167          C  0.3603234  0.8210815  0.4551708    0.00000       Uiso       1.00
      C168          C  0.3473415  0.8267828  0.4836887    0.00000       Uiso       1.00
      C169          C  0.3703934  0.8026859  0.4457863    0.00000       Uiso       1.00
      C170          C  0.3672072  0.7898542  0.4647172    0.00000       Uiso       1.00
      C171          C  0.3539249  0.7953073  0.4932874    0.00000       Uiso       1.00
      C172          C  0.3440182  0.8138532  0.5026654    0.00000       Uiso       1.00
       H82          H  0.3398119  0.8412341  0.4914405    0.00000       Uiso       1.00
       H83          H  0.3338311  0.8185030  0.5246203    0.00000       Uiso       1.00
       H84          H  0.3807305  0.7982711  0.4237922    0.00000       Uiso       1.00
       F25          F  0.2676254  0.9542011  0.4794265    0.00000       Uiso       1.00
       F26          F  0.3779427  0.7705681  0.4542034    0.00000       Uiso       1.00
       F27          F  0.2928419  0.7957800  0.2705711    0.00000       Uiso       1.00
       F28          F  0.5615737  0.9794205  0.2957868    0.00000       Uiso       1.00
      C173          C  0.3733209  0.9169568  0.3741029    0.00000       Uiso       1.00
      C174          C  0.3642338  0.8957661  0.3893162    0.00000       Uiso       1.00
      C175          C  0.3434140  0.8929957  0.4172019    0.00000       Uiso       1.00
      C176          C  0.3346120  0.9123783  0.4299999    0.00000       Uiso       1.00
      C177          C  0.3454942  0.9347069  0.4151699    0.00000       Uiso       1.00
      C178          C  0.3646700  0.9364997  0.3869196    0.00000       Uiso       1.00
       H85          H  0.3725484  0.9527203  0.3746088    0.00000       Uiso       1.00
       H86          H  0.3338409  0.8758142  0.4293416    0.00000       Uiso       1.00
       H87          H  0.3193395  0.9099759  0.4516674    0.00000       Uiso       1.00
      C179          C  0.4065313  0.8893113  0.3542230    0.00000       Uiso       1.00
      C180          C  0.4186345  0.8740976  0.3330317    0.00000       Uiso       1.00
      C181          C  0.4245805  0.9171970  0.3569941    0.00000       Uiso       1.00
      C182          C  0.4527648  0.9299946  0.3376111    0.00000       Uiso       1.00
      C183          C  0.4642107  0.9151643  0.3152819    0.00000       Uiso       1.00
      C184          C  0.4468278  0.8869140  0.3134885    0.00000       Uiso       1.00
       H88          H  0.4551698  0.8746027  0.2972673    0.00000       Uiso       1.00
       H89          H  0.4169725  0.9293370  0.3741759    0.00000       Uiso       1.00
       H90          H  0.4656348  0.9516622  0.3400140    0.00000       Uiso       1.00
      C185          C  0.3577788  0.8542182  0.3606784    0.00000       Uiso       1.00
      C186          C  0.3304624  0.8330272  0.3758919    0.00000       Uiso       1.00
      C187          C  0.3676144  0.8569887  0.3327929    0.00000       Uiso       1.00
      C188          C  0.3522272  0.8376053  0.3199954    0.00000       Uiso       1.00
      C189          C  0.3259514  0.8152765  0.3348256    0.00000       Uiso       1.00
      C190          C  0.3150849  0.8134838  0.3630757    0.00000       Uiso       1.00
       H91          H  0.2944323  0.7972627  0.3753867    0.00000       Uiso       1.00
       H92          H  0.3873619  0.8741701  0.3206530    0.00000       Uiso       1.00
       H93          H  0.3610242  0.8400077  0.2983280    0.00000       Uiso       1.00
      C191          C  0.3714398  0.8606743  0.3957703    0.00000       Uiso       1.00
      C192          C  0.3775660  0.8758883  0.4169612    0.00000       Uiso       1.00
      C193          C  0.3643749  0.8327886  0.3929991    0.00000       Uiso       1.00
      C194          C  0.3603797  0.8199915  0.4123816    0.00000       Uiso       1.00
      C195          C  0.3643274  0.8348222  0.4347105    0.00000       Uiso       1.00
      C196          C  0.3734009  0.8630724  0.4365039    0.00000       Uiso       1.00
       H94          H  0.3778333  0.8753839  0.4527248    0.00000       Uiso       1.00
       H95          H  0.3618084  0.8206484  0.3758175    0.00000       Uiso       1.00
       H96          H  0.3539854  0.7983240  0.4099787    0.00000       Uiso       1.00
       F29          F  0.3879724  0.9060526  0.4193528    0.00000       Uiso       1.00
       F30          F  0.3930780  0.9193478  0.3439385    0.00000       Uiso       1.00
       F31          F  0.3176650  0.8306362  0.4060562    0.00000       Uiso       1.00
       F32          F  0.4012684  0.8439332  0.3306402    0.00000       Uiso       1.00
      C197          C  0.1250004  0.7500070  0.0000024    0.00000       Uiso       1.00
      C198          C  0.1526602  0.7294550  0.0810365    0.00000       Uiso       1.00
      C199          C  0.1396779  0.7107714  0.0655010    0.00000       Uiso       1.00
      C200          C  0.1296085  0.6823058  0.0661863    0.00000       Uiso       1.00
      C201          C  0.1327959  0.6726610  0.0819304    0.00000       Uiso       1.00
      C202          C  0.1460786  0.6913969  0.0972178    0.00000       Uiso       1.00
      C203          C  0.1559847  0.7198493  0.0966892    0.00000       Uiso       1.00
       H97          H  0.1601893  0.7514359  0.0812588    0.00000       Uiso       1.00
       H98          H  0.1661720  0.7346866  0.1084568    0.00000       Uiso       1.00
       H99          H  0.1192710  0.6675536  0.0545297    0.00000       Uiso       1.00
      C204          C  0.1642366  0.8694202  0.0146789    0.00000       Uiso       1.00
      C205          C  0.1455533  0.8792546  0.0276616    0.00000       Uiso       1.00
      C206          C  0.1927019  0.8885019  0.0046091    0.00000       Uiso       1.00
      C207          C  0.2023467  0.9170784  0.0077963    0.00000       Uiso       1.00
      C208          C  0.1836112  0.9269128  0.0210793    0.00000       Uiso       1.00
      C209          C  0.1551590  0.9078377  0.0309859    0.00000       Uiso       1.00
      H100          H  0.1235725  0.8650249  0.0351911    0.00000       Uiso       1.00
      H101          H  0.1403220  0.9149556  0.0411735    0.00000       Uiso       1.00
      H102          H  0.2074551  0.8812603  0.9942699    0.00000       Uiso       1.00
      C210          C  0.0055882  0.6845057  0.0392407    0.00000       Uiso       1.00
      C211          C  0.9957528  0.6689697  0.0205576    0.00000       Uiso       1.00
      C212          C  0.9865065  0.6838202  0.0677064    0.00000       Uiso       1.00
      C213          C  0.9579301  0.6680755  0.0773518    0.00000       Uiso       1.00
      C214          C  0.9480952  0.6527876  0.0586164    0.00000       Uiso       1.00
      C215          C  0.9671699  0.6533164  0.0301638    0.00000       Uiso       1.00
      H103          H  0.0099838  0.6687480  0.9985751    0.00000       Uiso       1.00
      H104          H  0.9600517  0.6415485  0.0153270    0.00000       Uiso       1.00
      H105          H  0.9937487  0.6954772  0.0824583    0.00000       Uiso       1.00
      C216          C  0.1905004  0.7353315  0.8805875    0.00000       Uiso       1.00
      C217          C  0.2060362  0.7223495  0.8707524    0.00000       Uiso       1.00
      C218          C  0.1911855  0.7454007  0.8615063    0.00000       Uiso       1.00
      C219          C  0.2069297  0.7422137  0.8329296    0.00000       Uiso       1.00
      C220          C  0.2222173  0.7289312  0.8230946    0.00000       Uiso       1.00
      C221          C  0.2216890  0.7190253  0.8421692    0.00000       Uiso       1.00
      H106          H  0.2062586  0.7148203  0.8849817    0.00000       Uiso       1.00
      H107          H  0.2334567  0.7088382  0.8350508    0.00000       Uiso       1.00
      H108          H  0.1795288  0.7557380  0.8687488    0.00000       Uiso       1.00
       F33          F  0.1220610  0.6426396  0.0821520    0.00000       Uiso       1.00
       F34          F  0.2071511  0.7529485  0.8134218    0.00000       Uiso       1.00
       F35          F  0.9384222  0.6678537  0.1073734    0.00000       Uiso       1.00
       F36          F  0.2323692  0.9365874  0.9970594    0.00000       Uiso       1.00
      C222          C  0.1224323  0.7483337  0.0445358    0.00000       Uiso       1.00
      C223          C  0.1285579  0.7392457  0.0172189    0.00000       Uiso       1.00
      C224          C  0.1356235  0.7184255  0.0073824    0.00000       Uiso       1.00
      C225          C  0.1396198  0.7096242  0.0227691    0.00000       Uiso       1.00
      C226          C  0.1356726  0.7205074  0.0490454    0.00000       Uiso       1.00
      C227          C  0.1265984  0.7396834  0.0599129    0.00000       Uiso       1.00
      H109          H  0.1221664  0.7475626  0.0805660    0.00000       Uiso       1.00
      H110          H  0.1381909  0.7088522  0.9876329    0.00000       Uiso       1.00
      H111          H  0.1460147  0.6943515  0.0139714    0.00000       Uiso       1.00
      C228          C  0.1357620  0.7815427  0.0035596    0.00000       Uiso       1.00
      C229          C  0.1266749  0.7936461  0.9974328    0.00000       Uiso       1.00
      C230          C  0.1565824  0.7995927  0.0106247    0.00000       Uiso       1.00
      C231          C  0.1653838  0.8277773  0.0146208    0.00000       Uiso       1.00
      C232          C  0.1545004  0.8392229  0.0106739    0.00000       Uiso       1.00
      C233          C  0.1353240  0.8218393  0.0016003    0.00000       Uiso       1.00
      H112          H  0.1274458  0.8301814  0.9971671    0.00000       Uiso       1.00
      H113          H  0.1661563  0.7919850  0.0131906    0.00000       Uiso       1.00
      H114          H  0.1806568  0.8406479  0.0210152    0.00000       Uiso       1.00
      C234          C  0.0934649  0.7327898  0.0107645    0.00000       Uiso       1.00
      C235          C  0.0813620  0.7054728  0.0016765    0.00000       Uiso       1.00
      C236          C  0.0754155  0.7426258  0.0315851    0.00000       Uiso       1.00
      C237          C  0.0472310  0.7272385  0.0403870    0.00000       Uiso       1.00
      C238          C  0.0357852  0.7009621  0.0295040    0.00000       Uiso       1.00
      C239          C  0.0531684  0.6900951  0.0103273    0.00000       Uiso       1.00
      H115          H  0.0448266  0.6694419  0.0024480    0.00000       Uiso       1.00
      H116          H  0.0830234  0.7623740  0.0411589    0.00000       Uiso       1.00
      H117          H  0.0343609  0.7360358  0.0556601    0.00000       Uiso       1.00
      C240          C  0.1422183  0.7464505  0.9684651    0.00000       Uiso       1.00
      C241          C  0.1695350  0.7525767  0.9563616    0.00000       Uiso       1.00
      C242          C  0.1323818  0.7393847  0.9504158    0.00000       Uiso       1.00
      C243          C  0.1477686  0.7353887  0.9222311    0.00000       Uiso       1.00
      C244          C  0.1740448  0.7393363  0.9107848    0.00000       Uiso       1.00
      C245          C  0.1849121  0.7484108  0.9281678    0.00000       Uiso       1.00
      H118          H  0.2055652  0.7528432  0.9198256    0.00000       Uiso       1.00
      H119          H  0.1126338  0.7368181  0.9580241    0.00000       Uiso       1.00
      H120          H  0.1389710  0.7289937  0.9093611    0.00000       Uiso       1.00
       F37          F  0.1823333  0.7629840  0.9737278    0.00000       Uiso       1.00
       F38          F  0.1120253  0.7680911  0.0573343    0.00000       Uiso       1.00
       F39          F  0.0987296  0.6926754  0.9819169    0.00000       Uiso       1.00
       F40          F  0.1069171  0.7762792  0.9870263    0.00000       Uiso       1.00
      C246          C  0.9999999  0.2499803  0.2499996    0.00000       Uiso       1.00
      C247          C  0.0482098  0.3792272  0.2223441    0.00000       Uiso       1.00
      C248          C  0.0539112  0.3693930  0.2353259    0.00000       Uiso       1.00
      C249          C  0.0723071  0.3884750  0.2453955    0.00000       Uiso       1.00
      C250          C  0.0851387  0.4170515  0.2422091    0.00000       Uiso       1.00
      C251          C  0.0796854  0.4268857  0.2289269    0.00000       Uiso       1.00
      C252          C  0.0611393  0.4078102  0.2190205    0.00000       Uiso       1.00
      H121          H  0.0337582  0.3649974  0.2148147    0.00000       Uiso       1.00
      H122          H  0.0564893  0.4149279  0.2088336    0.00000       Uiso       1.00
      H123          H  0.0767220  0.3812332  0.2557327    0.00000       Uiso       1.00
      C253          C  0.9198241  0.1844782  0.2107626    0.00000       Uiso       1.00
      C254          C  0.8913066  0.1689425  0.2294458    0.00000       Uiso       1.00
      C255          C  0.9292076  0.1837921  0.1822971    0.00000       Uiso       1.00
      C256          C  0.9102761  0.1680471  0.1726520    0.00000       Uiso       1.00
      C257          C  0.8817065  0.1527596  0.1913875    0.00000       Uiso       1.00
      C258          C  0.8723294  0.1532890  0.2198399    0.00000       Uiso       1.00
      H124          H  0.8835555  0.1687208  0.2514267    0.00000       Uiso       1.00
      H125          H  0.8503749  0.1415213  0.2346768    0.00000       Uiso       1.00
      H126          H  0.9512013  0.1954487  0.1675451    0.00000       Uiso       1.00
      C259          C  0.9460893  0.2353066  0.3694122    0.00000       Uiso       1.00
      C260          C  0.9517908  0.2223248  0.3792464    0.00000       Uiso       1.00
      C261          C  0.9276935  0.2453763  0.3884941    0.00000       Uiso       1.00
      C262          C  0.9148619  0.2421898  0.4170706    0.00000       Uiso       1.00
      C263          C  0.9203152  0.2289076  0.4269047    0.00000       Uiso       1.00
      C264          C  0.9388613  0.2190012  0.4078294    0.00000       Uiso       1.00
      H127          H  0.9662424  0.2147954  0.3650165    0.00000       Uiso       1.00
      H128          H  0.9435112  0.2088143  0.4149470    0.00000       Uiso       1.00
      H129          H  0.9232786  0.2557134  0.3812523    0.00000       Uiso       1.00
      C265          C  0.0801761  0.2107432  0.1844976    0.00000       Uiso       1.00
      C266          C  0.1086935  0.2294265  0.1689620    0.00000       Uiso       1.00
      C267          C  0.0707925  0.1822777  0.1838115    0.00000       Uiso       1.00
      C268          C  0.0897239  0.1726326  0.1680666    0.00000       Uiso       1.00
      C269          C  0.1182936  0.1913681  0.1527791    0.00000       Uiso       1.00
      C270          C  0.1276706  0.2198206  0.1533084    0.00000       Uiso       1.00
      H130          H  0.1164447  0.2514074  0.1687402    0.00000       Uiso       1.00
      H131          H  0.1496252  0.2346575  0.1415408    0.00000       Uiso       1.00
      H132          H  0.0487987  0.1675257  0.1954681    0.00000       Uiso       1.00
       F41          F  0.1044250  0.4365601  0.2529443    0.00000       Uiso       1.00
       F42          F  0.0792110  0.1426111  0.1678442    0.00000       Uiso       1.00
       F43          F  0.8955757  0.2529250  0.4365792    0.00000       Uiso       1.00
       F44          F  0.9207890  0.1678247  0.1426305    0.00000       Uiso       1.00
      C271          C  0.9991041  0.2936188  0.2525695    0.00000       Uiso       1.00
      C272          C  0.0143187  0.2815159  0.2464431    0.00000       Uiso       1.00
      C273          C  0.0422041  0.2995656  0.2393776    0.00000       Uiso       1.00
      C274          C  0.0550012  0.3277502  0.2353822    0.00000       Uiso       1.00
      C275          C  0.0401706  0.3391959  0.2393302    0.00000       Uiso       1.00
      C276          C  0.0119206  0.3218125  0.2484043    0.00000       Uiso       1.00
      H133          H  0.9996086  0.3301542  0.2528369    0.00000       Uiso       1.00
      H134          H  0.0543443  0.2919579  0.2368109    0.00000       Uiso       1.00
      H135          H  0.0766685  0.3406206  0.2289874    0.00000       Uiso       1.00
      C277          C  0.9792259  0.2327628  0.2392378    0.00000       Uiso       1.00
      C278          C  0.9580353  0.2054460  0.2483254    0.00000       Uiso       1.00
      C279          C  0.9819962  0.2425984  0.2184178    0.00000       Uiso       1.00
      C280          C  0.9626133  0.2272108  0.2096162    0.00000       Uiso       1.00
      C281          C  0.9402848  0.2009346  0.2204989    0.00000       Uiso       1.00
      C282          C  0.9384922  0.1900681  0.2396749    0.00000       Uiso       1.00
      H136          H  0.9222717  0.1694151  0.2475538    0.00000       Uiso       1.00
      H137          H  0.9991775  0.2623463  0.2088443    0.00000       Uiso       1.00
      H138          H  0.9650155  0.2360078  0.1943435    0.00000       Uiso       1.00
      C283          C  0.9856817  0.2464239  0.2815352    0.00000       Uiso       1.00
      C284          C  0.0008963  0.2525502  0.2936381    0.00000       Uiso       1.00
      C285          C  0.9577964  0.2393584  0.2995849    0.00000       Uiso       1.00
      C286          C  0.9449993  0.2353630  0.3277694    0.00000       Uiso       1.00
      C287          C  0.9598300  0.2393110  0.3392151    0.00000       Uiso       1.00
      C288          C  0.9880798  0.2483849  0.3218317    0.00000       Uiso       1.00
      H139          H  0.0003918  0.2528172  0.3301734    0.00000       Uiso       1.00
      H140          H  0.9456561  0.2367917  0.2919772    0.00000       Uiso       1.00
      H141          H  0.9233320  0.2289681  0.3406398    0.00000       Uiso       1.00
      C289          C  0.0207743  0.2392185  0.2327821    0.00000       Uiso       1.00
      C290          C  0.0419647  0.2483059  0.2054653    0.00000       Uiso       1.00
      C291          C  0.0180041  0.2183985  0.2426178    0.00000       Uiso       1.00
      C292          C  0.0373870  0.2095969  0.2272303    0.00000       Uiso       1.00
      C293          C  0.0597153  0.2204796  0.2009540    0.00000       Uiso       1.00
      C294          C  0.0615079  0.2396555  0.1900875    0.00000       Uiso       1.00
      H142          H  0.0777283  0.2475342  0.1694344    0.00000       Uiso       1.00
      H143          H  0.0008229  0.2088250  0.2623656    0.00000       Uiso       1.00
      H144          H  0.0349848  0.1943243  0.2360272    0.00000       Uiso       1.00
       F45          F  0.0443553  0.2680631  0.1926677    0.00000       Uiso       1.00
       F46          F  0.9689400  0.2762522  0.2629765    0.00000       Uiso       1.00
       F47          F  0.0310604  0.2629570  0.2762715    0.00000       Uiso       1.00
       F48          F  0.9556447  0.1926485  0.2680826    0.00000       Uiso       1.00
      C295          C  0.6089482  0.5699281  0.6389478    0.00000       Uiso       1.00
      C296          C  0.6149924  0.5638538  0.6542603    0.00000       Uiso       1.00
      C297          C  0.6067783  0.5367999  0.6572030    0.00000       Uiso       1.00
      C298          C  0.6119806  0.5311529  0.6736275    0.00000       Uiso       1.00
      C299          C  0.6239122  0.5521421  0.6889652    0.00000       Uiso       1.00
      C300          C  0.6317344  0.5791981  0.6860390    0.00000       Uiso       1.00
      C301          C  0.6294901  0.5857697  0.6672631    0.00000       Uiso       1.00
        O1          O  0.5939499  0.5509349  0.6259931    0.00000       Uiso       1.00
      H145          H  0.6380809  0.5949867  0.6996403    0.00000       Uiso       1.00
      C302          C  0.7356844  0.7519846  0.7113586    0.00000       Uiso       1.00
      C303          C  0.7203865  0.7306483  0.6992459    0.00000       Uiso       1.00
      C304          C  0.7174803  0.7360367  0.6804610    0.00000       Uiso       1.00
      C305          C  0.7011982  0.7144263  0.6694042    0.00000       Uiso       1.00
      C306          C  0.6859828  0.6870810  0.6782588    0.00000       Uiso       1.00
      C307          C  0.6888148  0.6821383  0.6975562    0.00000       Uiso       1.00
      C308          C  0.7074470  0.7031474  0.7065564    0.00000       Uiso       1.00
        O2          O  0.7486618  0.7799019  0.7072013    0.00000       Uiso       1.00
      H146          H  0.7280988  0.7570625  0.6742495    0.00000       Uiso       1.00
      H147          H  0.7005218  0.7194163  0.6540954    0.00000       Uiso       1.00
      H148          H  0.6752840  0.6621220  0.7068733    0.00000       Uiso       1.00
      C309          C  0.6633264  0.5528512  0.7665556    0.00000       Uiso       1.00
      C310          C  0.6754305  0.5802547  0.7605291    0.00000       Uiso       1.00
      C311          C  0.6941980  0.6019397  0.7688491    0.00000       Uiso       1.00
      C312          C  0.7052541  0.6292848  0.7635417    0.00000       Uiso       1.00
      C313          C  0.6964159  0.6356518  0.7513969    0.00000       Uiso       1.00
      C314          C  0.6771469  0.6135192  0.7435842    0.00000       Uiso       1.00
      C315          C  0.6681565  0.5858868  0.7459511    0.00000       Uiso       1.00
        O3          O  0.6676046  0.5441173  0.7814457    0.00000       Uiso       1.00
      H149          H  0.7003791  0.5974972  0.7792621    0.00000       Uiso       1.00
      H150          H  0.7205414  0.6452509  0.7692377    0.00000       Uiso       1.00
      H151          H  0.6678151  0.6176866  0.7370794    0.00000       Uiso       1.00
      C316          C  0.6447803  0.5314875  0.7584966    0.00000       Uiso       1.00
      C317          C  0.6380499  0.5361999  0.7429604    0.00000       Uiso       1.00
      C318          C  0.6192385  0.5145558  0.7346470    0.00000       Uiso       1.00
      C319          C  0.6137943  0.5196944  0.7181262    0.00000       Uiso       1.00
      C320          C  0.6283377  0.5463330  0.7079998    0.00000       Uiso       1.00
      C321          C  0.6474705  0.5678143  0.7162609    0.00000       Uiso       1.00
      C322          C  0.6509760  0.5636033  0.7353395    0.00000       Uiso       1.00
        O4          O  0.6349871  0.5059935  0.7666641    0.00000       Uiso       1.00
      H152          H  0.6609082  0.5876063  0.7065510    0.00000       Uiso       1.00
      C323          C  0.7384866  0.7467095  0.7298810    0.00000       Uiso       1.00
      C324          C  0.7270372  0.7197540  0.7366242    0.00000       Uiso       1.00
      C325          C  0.7299397  0.7143969  0.7554311    0.00000       Uiso       1.00
      C326          C  0.7192071  0.6872771  0.7610899    0.00000       Uiso       1.00
      C327          C  0.7069198  0.6649660  0.7467142    0.00000       Uiso       1.00
      C328          C  0.7046344  0.6708316  0.7274892    0.00000       Uiso       1.00
      C329          C  0.7124993  0.6976361  0.7237914    0.00000       Uiso       1.00
        O5          O  0.7541008  0.7704917  0.7398216    0.00000       Uiso       1.00
      H153          H  0.7403480  0.7313482  0.7658717    0.00000       Uiso       1.00
      H154          H  0.7208388  0.6840587  0.7766171    0.00000       Uiso       1.00
      H155          H  0.6981477  0.6546972  0.7141500    0.00000       Uiso       1.00
      C330          C  0.6170174  0.5965554  0.6361938    0.00000       Uiso       1.00
      C331          C  0.6325184  0.6188015  0.6476382    0.00000       Uiso       1.00
      C332          C  0.6407706  0.6458645  0.6447300    0.00000       Uiso       1.00
      C333          C  0.6571591  0.6679245  0.6554543    0.00000       Uiso       1.00
      C334          C  0.6671794  0.6635810  0.6677514    0.00000       Uiso       1.00
      C335          C  0.6590161  0.6362022  0.6700543    0.00000       Uiso       1.00
      C336          C  0.6400803  0.6135619  0.6621844    0.00000       Uiso       1.00
        O6          O  0.6088068  0.5984160  0.6206687    0.00000       Uiso       1.00
      H156          H  0.6342103  0.6497241  0.6343158    0.00000       Uiso       1.00
      H157          H  0.6620006  0.6882899  0.6538055    0.00000       Uiso       1.00
      H158          H  0.6686325  0.6324717  0.6765490    0.00000       Uiso       1.00
        B1          B  0.5940665  0.5692393  0.6144507    0.00000       Uiso       1.00
        B2          B  0.7603578  0.7914362  0.7253305    0.00000       Uiso       1.00
        B3          B  0.6495361  0.5142870  0.7812356    0.00000       Uiso       1.00
      H159          H  0.5965059  0.5199991  0.6466216    0.00000       Uiso       1.00
      H160          H  0.6062675  0.5101681  0.6743595    0.00000       Uiso       1.00
      H161          H  0.6085428  0.4936470  0.7411100    0.00000       Uiso       1.00
      H162          H  0.5983234  0.5025299  0.7131984    0.00000       Uiso       1.00
      C337          C  0.3910534  0.6389487  0.5699271    0.00000       Uiso       1.00
      C338          C  0.3850093  0.6542612  0.5638528    0.00000       Uiso       1.00
      C339          C  0.3932233  0.6572039  0.5367990    0.00000       Uiso       1.00
      C340          C  0.3880211  0.6736284  0.5311520    0.00000       Uiso       1.00
      C341          C  0.3760896  0.6889662  0.5521412    0.00000       Uiso       1.00
      C342          C  0.3682674  0.6860400  0.5791971    0.00000       Uiso       1.00
      C343          C  0.3705117  0.6672640  0.5857687    0.00000       Uiso       1.00
        O7          O  0.4060518  0.6259940  0.5509339    0.00000       Uiso       1.00
      H163          H  0.3619210  0.6996413  0.5949857    0.00000       Uiso       1.00
      C344          C  0.2643178  0.7113597  0.7519833    0.00000       Uiso       1.00
      C345          C  0.2796156  0.6992469  0.7306471    0.00000       Uiso       1.00
      C346          C  0.2825218  0.6804620  0.7360354    0.00000       Uiso       1.00
      C347          C  0.2988038  0.6694052  0.7144251    0.00000       Uiso       1.00
      C348          C  0.3140192  0.6782598  0.6870798    0.00000       Uiso       1.00
      C349          C  0.3111873  0.6975572  0.6821371    0.00000       Uiso       1.00
      C350          C  0.2925551  0.7065576  0.7031462    0.00000       Uiso       1.00
        O8          O  0.2513405  0.7072024  0.7799006    0.00000       Uiso       1.00
      H164          H  0.2719034  0.6742505  0.7570612    0.00000       Uiso       1.00
      H165          H  0.2994802  0.6540964  0.7194152    0.00000       Uiso       1.00
      H166          H  0.3247180  0.7068744  0.6621209    0.00000       Uiso       1.00
      C351          C  0.3366755  0.7665567  0.5528502    0.00000       Uiso       1.00
      C352          C  0.3245715  0.7605302  0.5802536    0.00000       Uiso       1.00
      C353          C  0.3058040  0.7688501  0.6019385    0.00000       Uiso       1.00
      C354          C  0.2947479  0.7635427  0.6292837    0.00000       Uiso       1.00
      C355          C  0.3035862  0.7513980  0.6356506    0.00000       Uiso       1.00
      C356          C  0.3228551  0.7435852  0.6135181    0.00000       Uiso       1.00
      C357          C  0.3318454  0.7459521  0.5858857    0.00000       Uiso       1.00
        O9          O  0.3323973  0.7814468  0.5441163    0.00000       Uiso       1.00
      H167          H  0.2996229  0.7792632  0.5974961    0.00000       Uiso       1.00
      H168          H  0.2794607  0.7692388  0.6452497    0.00000       Uiso       1.00
      H169          H  0.3321868  0.7370805  0.6176855    0.00000       Uiso       1.00
      C358          C  0.3552215  0.7584977  0.5314865    0.00000       Uiso       1.00
      C359          C  0.3619520  0.7429615  0.5361989    0.00000       Uiso       1.00
      C360          C  0.3807633  0.7346480  0.5145547    0.00000       Uiso       1.00
      C361          C  0.3862075  0.7181273  0.5196935    0.00000       Uiso       1.00
      C362          C  0.3716640  0.7080008  0.5463320    0.00000       Uiso       1.00
      C363          C  0.3525313  0.7162619  0.5678133    0.00000       Uiso       1.00
      C364          C  0.3490258  0.7353405  0.5636023    0.00000       Uiso       1.00
       O10          O  0.3650147  0.7666651  0.5059925    0.00000       Uiso       1.00
      H170          H  0.3390937  0.7065521  0.5876053    0.00000       Uiso       1.00
      C365          C  0.2615155  0.7298820  0.7467082    0.00000       Uiso       1.00
      C366          C  0.2729650  0.7366253  0.7197528    0.00000       Uiso       1.00
      C367          C  0.2700625  0.7554322  0.7143956    0.00000       Uiso       1.00
      C368          C  0.2807950  0.7610911  0.6872758    0.00000       Uiso       1.00
      C369          C  0.2930822  0.7467153  0.6649649    0.00000       Uiso       1.00
      C370          C  0.2953677  0.7274902  0.6708305    0.00000       Uiso       1.00
      C371          C  0.2875028  0.7237925  0.6976349    0.00000       Uiso       1.00
       O11          O  0.2459015  0.7398227  0.7704904    0.00000       Uiso       1.00
      H171          H  0.2596542  0.7658728  0.7313468    0.00000       Uiso       1.00
      H172          H  0.2791633  0.7766182  0.6840575    0.00000       Uiso       1.00
      H173          H  0.3018543  0.7141511  0.6546961    0.00000       Uiso       1.00
      C372          C  0.3829843  0.6361947  0.5965543    0.00000       Uiso       1.00
      C373          C  0.3674835  0.6476392  0.6188004    0.00000       Uiso       1.00
      C374          C  0.3592312  0.6447309  0.6458635    0.00000       Uiso       1.00
      C375          C  0.3428428  0.6554552  0.6679234    0.00000       Uiso       1.00
      C376          C  0.3328225  0.6677524  0.6635799    0.00000       Uiso       1.00
      C377          C  0.3409858  0.6700553  0.6362011    0.00000       Uiso       1.00
      C378          C  0.3599215  0.6621853  0.6135609    0.00000       Uiso       1.00
       O12          O  0.3911949  0.6206696  0.5984149    0.00000       Uiso       1.00
      H174          H  0.3657916  0.6343167  0.6497230    0.00000       Uiso       1.00
      H175          H  0.3380014  0.6538065  0.6882888    0.00000       Uiso       1.00
      H176          H  0.3313694  0.6765500  0.6324706    0.00000       Uiso       1.00
        B4          B  0.4059352  0.6144516  0.5692384    0.00000       Uiso       1.00
        B5          B  0.2396445  0.7253316  0.7914349    0.00000       Uiso       1.00
        B6          B  0.3504658  0.7812366  0.5142860    0.00000       Uiso       1.00
      H177          H  0.4034956  0.6466225  0.5199982    0.00000       Uiso       1.00
      H178          H  0.3937342  0.6743604  0.5101672    0.00000       Uiso       1.00
      H179          H  0.3914590  0.7411111  0.4936461    0.00000       Uiso       1.00
      H180          H  0.4016783  0.7131994  0.5025290    0.00000       Uiso       1.00
      C379          C  0.1230311  0.0700841  0.6078450    0.00000       Uiso       1.00
      C380          C  0.1443683  0.0640066  0.5906678    0.00000       Uiso       1.00
      C381          C  0.1390213  0.0369556  0.5825289    0.00000       Uiso       1.00
      C382          C  0.1606309  0.0312174  0.5664217    0.00000       Uiso       1.00
      C383          C  0.1878993  0.0521649  0.5595288    0.00000       Uiso       1.00
      C384          C  0.1928116  0.0792152  0.5682137    0.00000       Uiso       1.00
      C385          C  0.1718336  0.0858448  0.5818418    0.00000       Uiso       1.00
       O13          O  0.0951386  0.0510443  0.6188774    0.00000       Uiso       1.00
      H181          H  0.1180245  0.0203611  0.5886232    0.00000       Uiso       1.00
      H182          H  0.1557071  0.0102655  0.5596798    0.00000       Uiso       1.00
      H183          H  0.2127521  0.0949899  0.5658169    0.00000       Uiso       1.00
      C386          C  0.3220526  0.2519685  0.5357908    0.00000       Uiso       1.00
      C387          C  0.2946382  0.2306313  0.5460289    0.00000       Uiso       1.00
      C388          C  0.2729346  0.2359787  0.5595944    0.00000       Uiso       1.00
      C389          C  0.2455870  0.2143693  0.5708355    0.00000       Uiso       1.00
      C390          C  0.2392658  0.1871005  0.5702632    0.00000       Uiso       1.00
      C391          C  0.2614033  0.1821878  0.5568099    0.00000       Uiso       1.00
      C392          C  0.2890107  0.2031656  0.5428300    0.00000       Uiso       1.00
       O14          O  0.3309055  0.2798611  0.5379701    0.00000       Uiso       1.00
      H184          H  0.2773381  0.2569763  0.5612862    0.00000       Uiso       1.00
      H185          H  0.2295594  0.2192935  0.5801220    0.00000       Uiso       1.00
      H186          H  0.2572373  0.1622472  0.5585790    0.00000       Uiso       1.00
      C393          C  0.3049144  0.0529444  0.4808740    0.00000       Uiso       1.00
      C394          C  0.3109921  0.0803593  0.4850346    0.00000       Uiso       1.00
      C395          C  0.3380428  0.1020631  0.4715487    0.00000       Uiso       1.00
      C396          C  0.3437810  0.1294111  0.4770517    0.00000       Uiso       1.00
      C397          C  0.3228337  0.1357325  0.4974276    0.00000       Uiso       1.00
      C398          C  0.2957840  0.1135949  0.5110249    0.00000       Uiso       1.00
      C399          C  0.2891542  0.0859871  0.5036745    0.00000       Uiso       1.00
       O15          O  0.3239536  0.0440908  0.4640130    0.00000       Uiso       1.00
      H187          H  0.3546373  0.0976606  0.4566458    0.00000       Uiso       1.00
      H188          H  0.3647325  0.1454390  0.4653861    0.00000       Uiso       1.00
      H189          H  0.2800098  0.1177613  0.5285691    0.00000       Uiso       1.00
      C400          C  0.2783940  0.0316712  0.4945786    0.00000       Uiso       1.00
      C401          C  0.2561409  0.0363695  0.5119719    0.00000       Uiso       1.00
      C402          C  0.2290795  0.0146796  0.5254481    0.00000       Uiso       1.00
      C403          C  0.2070173  0.0197384  0.5416686    0.00000       Uiso       1.00
      C404          C  0.2113762  0.0463625  0.5433963    0.00000       Uiso       1.00
      C405          C  0.2387493  0.0678715  0.5294106    0.00000       Uiso       1.00
      C406          C  0.2613753  0.0637126  0.5154632    0.00000       Uiso       1.00
       O16          O  0.2766682  0.0061568  0.4883322    0.00000       Uiso       1.00
      H190          H  0.2251936  0.9938470  0.5234100    0.00000       Uiso       1.00
      H191          H  0.1866171  0.0026014  0.5525680    0.00000       Uiso       1.00
      H192          H  0.2424594  0.0876761  0.5279485    0.00000       Uiso       1.00
      C407          C  0.3433259  0.2467214  0.5229745    0.00000       Uiso       1.00
      C408          C  0.3386281  0.2197698  0.5181137    0.00000       Uiso       1.00
      C409          C  0.3603182  0.2143984  0.5045279    0.00000       Uiso       1.00
      C410          C  0.3552598  0.1872773  0.4986856    0.00000       Uiso       1.00
      C411          C  0.3286360  0.1650121  0.5047724    0.00000       Uiso       1.00
      C412          C  0.3071268  0.1708762  0.5181602    0.00000       Uiso       1.00
      C413          C  0.3112853  0.1976610  0.5268393    0.00000       Uiso       1.00
       O17          O  0.3688398  0.2705098  0.5150027    0.00000       Uiso       1.00
      H193          H  0.3811502  0.2313446  0.4986032    0.00000       Uiso       1.00
      H194          H  0.3723971  0.1840144  0.4891841    0.00000       Uiso       1.00
      H195          H  0.2873224  0.1547815  0.5204080    0.00000       Uiso       1.00
      C414          C  0.1282780  0.0966047  0.6163028    0.00000       Uiso       1.00
      C415          C  0.1552294  0.1188585  0.6067443    0.00000       Uiso       1.00
      C416          C  0.1606010  0.1459204  0.6148493    0.00000       Uiso       1.00
      C417          C  0.1877219  0.1679827  0.6039482    0.00000       Uiso       1.00
      C418          C  0.2099866  0.1636235  0.5834103    0.00000       Uiso       1.00
      C419          C  0.2041223  0.1362501  0.5752884    0.00000       Uiso       1.00
      C420          C  0.1773379  0.1136240  0.5881262    0.00000       Uiso       1.00
       O18          O  0.1044894  0.0983300  0.6338458    0.00000       Uiso       1.00
      H196          H  0.1436562  0.1498079  0.6297573    0.00000       Uiso       1.00
      H197          H  0.1909856  0.1883834  0.6115845    0.00000       Uiso       1.00
      H198          H  0.2202166  0.1325399  0.5577312    0.00000       Uiso       1.00
        B7          B  0.0835657  0.0692417  0.6353412    0.00000       Uiso       1.00
        B8          B  0.3606755  0.2914339  0.5246629    0.00000       Uiso       1.00
        B9          B  0.3057562  0.0143206  0.4689034    0.00000       Uiso       1.00
      C421          C  0.8769696  0.6078458  0.0700838    0.00000       Uiso       1.00
      C422          C  0.8556323  0.5906686  0.0640064    0.00000       Uiso       1.00
      C423          C  0.8609793  0.5825297  0.0369554    0.00000       Uiso       1.00
      C424          C  0.8393697  0.5664225  0.0312172    0.00000       Uiso       1.00
      C425          C  0.8121012  0.5595295  0.0521647    0.00000       Uiso       1.00
      C426          C  0.8071891  0.5682145  0.0792149    0.00000       Uiso       1.00
      C427          C  0.8281670  0.5818425  0.0858445    0.00000       Uiso       1.00
       O19          O  0.9048620  0.6188782  0.0510441    0.00000       Uiso       1.00
      H199          H  0.8819761  0.5886240  0.0203609    0.00000       Uiso       1.00
      H200          H  0.8442934  0.5596806  0.0102654    0.00000       Uiso       1.00
      H201          H  0.7872485  0.5658177  0.0949896    0.00000       Uiso       1.00
      C428          C  0.6779482  0.5357916  0.2519680    0.00000       Uiso       1.00
      C429          C  0.7053627  0.5460296  0.2306308    0.00000       Uiso       1.00
      C430          C  0.7270662  0.5595952  0.2359783    0.00000       Uiso       1.00
      C431          C  0.7544139  0.5708362  0.2143688    0.00000       Uiso       1.00
      C432          C  0.7607350  0.5702640  0.1871001    0.00000       Uiso       1.00
      C433          C  0.7385975  0.5568107  0.1821874    0.00000       Uiso       1.00
      C434          C  0.7109901  0.5428308  0.2031652    0.00000       Uiso       1.00
       O20          O  0.6690955  0.5379708  0.2798606    0.00000       Uiso       1.00
      H202          H  0.7226629  0.5612870  0.2569758    0.00000       Uiso       1.00
      H203          H  0.7704415  0.5801228  0.2192931    0.00000       Uiso       1.00
      H204          H  0.7427634  0.5585798  0.1622468    0.00000       Uiso       1.00
      C435          C  0.6950860  0.4808746  0.0529441    0.00000       Uiso       1.00
      C436          C  0.6890084  0.4850352  0.0803591    0.00000       Uiso       1.00
      C437          C  0.6619576  0.4715493  0.1020628    0.00000       Uiso       1.00
      C438          C  0.6562195  0.4770523  0.1294107    0.00000       Uiso       1.00
      C439          C  0.6771668  0.4974282  0.1357322    0.00000       Uiso       1.00
      C440          C  0.7042166  0.5110255  0.1135946    0.00000       Uiso       1.00
      C441          C  0.7108462  0.5036751  0.0859868    0.00000       Uiso       1.00
       O21          O  0.6760467  0.4640136  0.0440906    0.00000       Uiso       1.00
      H205          H  0.6453632  0.4566464  0.0976603    0.00000       Uiso       1.00
      H206          H  0.6352680  0.4653867  0.1454386    0.00000       Uiso       1.00
      H207          H  0.7199908  0.5285698  0.1177610    0.00000       Uiso       1.00
      C442          C  0.7216064  0.4945792  0.0316710    0.00000       Uiso       1.00
      C443          C  0.7438595  0.5119725  0.0363693    0.00000       Uiso       1.00
      C444          C  0.7709209  0.5254488  0.0146794    0.00000       Uiso       1.00
      C445          C  0.7929832  0.5416693  0.0197382    0.00000       Uiso       1.00
      C446          C  0.7886242  0.5433969  0.0463623    0.00000       Uiso       1.00
      C447          C  0.7612512  0.5294113  0.0678712    0.00000       Uiso       1.00
      C448          C  0.7386252  0.5154639  0.0637124    0.00000       Uiso       1.00
       O22          O  0.7233320  0.4883327  0.0061566    0.00000       Uiso       1.00
      H208          H  0.7748087  0.5234110  0.9938457    0.00000       Uiso       1.00
      H209          H  0.8133833  0.5525687  0.0026012    0.00000       Uiso       1.00
      H210          H  0.7575412  0.5279492  0.0876758    0.00000       Uiso       1.00
      C449          C  0.6566750  0.5229753  0.2467209    0.00000       Uiso       1.00
      C450          C  0.6613728  0.5181145  0.2197694    0.00000       Uiso       1.00
      C451          C  0.6396826  0.5045286  0.2143980    0.00000       Uiso       1.00
      C452          C  0.6447408  0.4986863  0.1872769    0.00000       Uiso       1.00
      C453          C  0.6713647  0.5047730  0.1650117    0.00000       Uiso       1.00
      C454          C  0.6928738  0.5181609  0.1708758    0.00000       Uiso       1.00
      C455          C  0.6887155  0.5268401  0.1976606    0.00000       Uiso       1.00
       O23          O  0.6311611  0.5150034  0.2705093    0.00000       Uiso       1.00
      H211          H  0.6188506  0.4986038  0.2313442    0.00000       Uiso       1.00
      H212          H  0.6276035  0.4891848  0.1840140    0.00000       Uiso       1.00
      H213          H  0.7126783  0.5204087  0.1547812    0.00000       Uiso       1.00
      C456          C  0.8717228  0.6163037  0.0966045    0.00000       Uiso       1.00
      C457          C  0.8447714  0.6067451  0.1188582    0.00000       Uiso       1.00
      C458          C  0.8393998  0.6148502  0.1459200    0.00000       Uiso       1.00
      C459          C  0.8122789  0.6039491  0.1679823    0.00000       Uiso       1.00
      C460          C  0.7900142  0.5834110  0.1636231    0.00000       Uiso       1.00
      C461          C  0.7958784  0.5752892  0.1362498    0.00000       Uiso       1.00
      C462          C  0.8226629  0.5881270  0.1136237    0.00000       Uiso       1.00
       O24          O  0.8955114  0.6338466  0.0983298    0.00000       Uiso       1.00
      H214          H  0.8563446  0.6297581  0.1498075    0.00000       Uiso       1.00
      H215          H  0.8090154  0.6115854  0.1883830    0.00000       Uiso       1.00
      H216          H  0.7797841  0.5577319  0.1325396    0.00000       Uiso       1.00
       B10          B  0.9164351  0.6353421  0.0692415    0.00000       Uiso       1.00
       B11          B  0.6393254  0.5246636  0.2914333    0.00000       Uiso       1.00
       B12          B  0.6942441  0.4689039  0.0143204    0.00000       Uiso       1.00
      C463          C  0.3771134  0.1970248  0.9839365    0.00000       Uiso       1.00
      C464          C  0.3557572  0.1695934  0.9899800    0.00000       Uiso       1.00
      C465          C  0.3610290  0.1478111  0.9817650    0.00000       Uiso       1.00
      C466          C  0.3394027  0.1205368  0.9869666    0.00000       Uiso       1.00
      C467          C  0.3121336  0.1142563  0.9988983    0.00000       Uiso       1.00
      C468          C  0.3072360  0.1364157  0.0067230    0.00000       Uiso       1.00
      C469          C  0.3282557  0.1640079  0.0044794    0.00000       Uiso       1.00
       O25          O  0.4050662  0.2059851  0.9689379    0.00000       Uiso       1.00
      H217          H  0.2872882  0.1322559  0.0130697    0.00000       Uiso       1.00
      C470          C  0.1779659  0.1799301  0.1106769    0.00000       Uiso       1.00
      C471          C  0.2053763  0.1860049  0.0953788    0.00000       Uiso       1.00
      C472          C  0.2270669  0.2130848  0.0924733    0.00000       Uiso       1.00
      C473          C  0.2544056  0.2188139  0.0761910    0.00000       Uiso       1.00
      C474          C  0.2607668  0.1978295  0.0609746    0.00000       Uiso       1.00
      C475          C  0.2386380  0.1707569  0.0638059    0.00000       Uiso       1.00
      C476          C  0.2110056  0.1641331  0.0824384    0.00000       Uiso       1.00
       O26          O  0.1691455  0.1990272  0.1236552    0.00000       Uiso       1.00
      H218          H  0.2226596  0.2297036  0.1030925    0.00000       Uiso       1.00
      H219          H  0.2703904  0.2397894  0.0755151    0.00000       Uiso       1.00
      H220          H  0.2428518  0.1549543  0.0502745    0.00000       Uiso       1.00
      C477          C  0.1951308  0.9979575  0.0383116    0.00000       Uiso       1.00
      C478          C  0.1890521  0.0192836  0.0504167    0.00000       Uiso       1.00
      C479          C  0.1619649  0.0138807  0.0691844    0.00000       Uiso       1.00
      C480          C  0.1562157  0.0354769  0.0802415    0.00000       Uiso       1.00
      C481          C  0.1771982  0.0628273  0.0714039    0.00000       Uiso       1.00
      C482          C  0.2042798  0.0677771  0.0521346    0.00000       Uiso       1.00
      C483          C  0.2109036  0.0467682  0.0431433    0.00000       Uiso       1.00
       O27          O  0.1759630  0.9700549  0.0425891    0.00000       Uiso       1.00
      H221          H  0.1453717  0.9928433  0.0753651    0.00000       Uiso       1.00
      H222          H  0.1352325  0.0304593  0.0955290    0.00000       Uiso       1.00
      H223          H  0.2201159  0.0877813  0.0428034    0.00000       Uiso       1.00
      C484          C  0.2217350  0.0031997  0.0197652    0.00000       Uiso       1.00
      C485          C  0.2440011  0.0301792  0.0130355    0.00000       Uiso       1.00
      C486          C  0.2711270  0.0356608  0.9942223    0.00000       Uiso       1.00
      C487          C  0.2930914  0.0627650  0.9887787    0.00000       Uiso       1.00
      C488          C  0.2886728  0.0849859  0.0033247    0.00000       Uiso       1.00
      C489          C  0.2612791  0.0790729  0.0224577    0.00000       Uiso       1.00
      C490          C  0.2386955  0.0522774  0.0259626    0.00000       Uiso       1.00
       O28          O  0.2233619  0.9793311  0.0099711    0.00000       Uiso       1.00
      H224          H  0.2575510  0.0951371  0.0358960    0.00000       Uiso       1.00
      C491          C  0.1566417  0.1533299  0.1134786    0.00000       Uiso       1.00
      C492          C  0.1613483  0.1310807  0.1020282    0.00000       Uiso       1.00
      C493          C  0.1396395  0.1040138  0.1049300    0.00000       Uiso       1.00
      C494          C  0.1447136  0.0819678  0.0941965    0.00000       Uiso       1.00
      C495          C  0.1713765  0.0863202  0.0819089    0.00000       Uiso       1.00
      C496          C  0.1928864  0.1136968  0.0796241    0.00000       Uiso       1.00
      C497          C  0.1887189  0.1363341  0.0874900    0.00000       Uiso       1.00
       O29          O  0.1310870  0.1515568  0.1290931    0.00000       Uiso       1.00
      H225          H  0.1187906  0.1001157  0.1153386    0.00000       Uiso       1.00
      H226          H  0.1275551  0.0615902  0.0958277    0.00000       Uiso       1.00
      H227          H  0.2127122  0.1173886  0.0731372    0.00000       Uiso       1.00
      C498          C  0.3717977  0.2183368  0.9920067    0.00000       Uiso       1.00
      C499          C  0.3448515  0.2136367  0.0075092    0.00000       Uiso       1.00
      C500          C  0.3395070  0.2353556  0.0157625    0.00000       Uiso       1.00
      C501          C  0.3123944  0.2303023  0.0321512    0.00000       Uiso       1.00
      C502          C  0.2900773  0.2036408  0.0421709    0.00000       Uiso       1.00
      C503          C  0.2959382  0.1821225  0.0340067    0.00000       Uiso       1.00
      C504          C  0.3227438  0.1862886  0.0150706    0.00000       Uiso       1.00
       O30          O  0.3955330  0.2439336  0.9837965    0.00000       Uiso       1.00
      H228          H  0.3564811  0.2561899  0.0092026    0.00000       Uiso       1.00
      H229          H  0.3092014  0.2474749  0.0369934    0.00000       Uiso       1.00
      H230          H  0.2798275  0.1622806  0.0436226    0.00000       Uiso       1.00
       B13          B  0.4164914  0.2357157  0.9690555    0.00000       Uiso       1.00
       B14          B  0.1393206  0.1807356  0.1353511    0.00000       Uiso       1.00
       B15          B  0.1942418  0.9585035  0.0245198    0.00000       Uiso       1.00
      H231          H  0.3818826  0.1518644  0.9714924    0.00000       Uiso       1.00
      H232          H  0.3443842  0.1045333  0.9812527    0.00000       Uiso       1.00
      H233          H  0.2753599  0.0189849  0.9835259    0.00000       Uiso       1.00
      H234          H  0.3134900  0.0659996  0.9733077    0.00000       Uiso       1.00
      C505          C  0.8941320  0.2142105  0.4980108    0.00000       Uiso       1.00
      C506          C  0.8899722  0.2039730  0.5193476    0.00000       Uiso       1.00
      C507          C  0.9034583  0.1904082  0.5139999    0.00000       Uiso       1.00
      C508          C  0.8979561  0.1791674  0.5356091    0.00000       Uiso       1.00
      C509          C  0.8775806  0.1797391  0.5628779    0.00000       Uiso       1.00
      C510          C  0.8639833  0.1931919  0.5677909    0.00000       Uiso       1.00
      C511          C  0.8713329  0.2071716  0.5468134    0.00000       Uiso       1.00
       O31          O  0.9109920  0.2120312  0.4701178    0.00000       Uiso       1.00
      H235          H  0.9183607  0.1887164  0.4930027    0.00000       Uiso       1.00
      H236          H  0.9096220  0.1698815  0.5306848    0.00000       Uiso       1.00
      H237          H  0.8464396  0.1914227  0.5877317    0.00000       Uiso       1.00
      C512          C  0.7671639  0.2691253  0.6970367    0.00000       Uiso       1.00
      C513          C  0.7843404  0.2649649  0.6696218    0.00000       Uiso       1.00
      C514          C  0.7924781  0.2784504  0.6479186    0.00000       Uiso       1.00
      C515          C  0.8085847  0.2729479  0.6205704    0.00000       Uiso       1.00
      C516          C  0.8154785  0.2525726  0.6142483    0.00000       Uiso       1.00
      C517          C  0.8067946  0.2389756  0.6363855    0.00000       Uiso       1.00
      C518          C  0.7931671  0.2463256  0.6639934    0.00000       Uiso       1.00
       O32          O  0.7561316  0.2859856  0.7058904    0.00000       Uiso       1.00
      H238          H  0.7863825  0.2933526  0.6523227    0.00000       Uiso       1.00
      H239          H  0.8153255  0.2846133  0.6045432    0.00000       Uiso       1.00
      H240          H  0.8091918  0.2214319  0.6322188    0.00000       Uiso       1.00
      C519          C  0.8392212  0.1421576  0.6798922    0.00000       Uiso       1.00
      C520          C  0.8289827  0.1593341  0.6859708    0.00000       Uiso       1.00
      C521          C  0.8154177  0.1674728  0.7130221    0.00000       Uiso       1.00
      C522          C  0.8041762  0.1835794  0.7187611    0.00000       Uiso       1.00
      C523          C  0.8047474  0.1904721  0.6978141    0.00000       Uiso       1.00
      C524          C  0.8181999  0.1817872  0.6707637    0.00000       Uiso       1.00
      C525          C  0.8321804  0.1681599  0.6641332    0.00000       Uiso       1.00
       O33          O  0.8370433  0.1311258  0.6989310    0.00000       Uiso       1.00
      H241          H  0.8137262  0.1613787  0.7296164    0.00000       Uiso       1.00
      H242          H  0.7948902  0.1903211  0.7397130    0.00000       Uiso       1.00
      H243          H  0.8164300  0.1841836  0.6549897    0.00000       Uiso       1.00
      C526          C  0.8520371  0.1337003  0.6533713    0.00000       Uiso       1.00
      C527          C  0.8568968  0.1432587  0.6311185    0.00000       Uiso       1.00
      C528          C  0.8704820  0.1351541  0.6040565    0.00000       Uiso       1.00
      C529          C  0.8763235  0.1460548  0.5819946    0.00000       Uiso       1.00
      C530          C  0.8702365  0.1665922  0.5863545    0.00000       Uiso       1.00
      C531          C  0.8568490  0.1747134  0.6137282    0.00000       Uiso       1.00
      C532          C  0.8481706  0.1618759  0.6363537    0.00000       Uiso       1.00
       O34          O  0.8600096  0.1161583  0.6516447    0.00000       Uiso       1.00
      H244          H  0.8764070  0.1202467  0.6001692    0.00000       Uiso       1.00
      H245          H  0.8858243  0.1384187  0.5615939    0.00000       Uiso       1.00
      H246          H  0.8546007  0.1922701  0.6174389    0.00000       Uiso       1.00
      C533          C  0.7587072  0.2554211  0.7183096    0.00000       Uiso       1.00
      C534          C  0.7682661  0.2380283  0.7136109    0.00000       Uiso       1.00
      C535          C  0.7601621  0.2245525  0.7353007    0.00000       Uiso       1.00
      C536          C  0.7710631  0.2083323  0.7302415    0.00000       Uiso       1.00
      C537          C  0.7916002  0.2066045  0.7036171    0.00000       Uiso       1.00
      C538          C  0.7997211  0.2205900  0.6821084    0.00000       Uiso       1.00
      C539          C  0.7868834  0.2345371  0.6862676    0.00000       Uiso       1.00
       O35          O  0.7411651  0.2616672  0.7438240    0.00000       Uiso       1.00
      H247          H  0.7452549  0.2265912  0.7561330    0.00000       Uiso       1.00
      H248          H  0.7634274  0.1974333  0.7473785    0.00000       Uiso       1.00
      H249          H  0.8172777  0.2220524  0.6623037    0.00000       Uiso       1.00
      C540          C  0.8804269  0.2270262  0.5032584    0.00000       Uiso       1.00
      C541          C  0.8630342  0.2318869  0.5302103    0.00000       Uiso       1.00
      C542          C  0.8495572  0.2454718  0.5355827    0.00000       Uiso       1.00
      C543          C  0.8333372  0.2513140  0.5627041    0.00000       Uiso       1.00
      C544          C  0.8316107  0.2452281  0.5849686    0.00000       Uiso       1.00
      C545          C  0.8455971  0.2318410  0.5791035    0.00000       Uiso       1.00
      C546          C  0.8595439  0.2231619  0.5523185    0.00000       Uiso       1.00
       O36          O  0.8866724  0.2349973  0.4794700    0.00000       Uiso       1.00
      H250          H  0.8515940  0.2513962  0.5186381    0.00000       Uiso       1.00
      H251          H  0.8224372  0.2608146  0.5659683    0.00000       Uiso       1.00
      H252          H  0.8470601  0.2295939  0.5951977    0.00000       Uiso       1.00
       B16          B  0.9061009  0.2253376  0.4585455    0.00000       Uiso       1.00
       B17          B  0.7396688  0.2810953  0.7356605    0.00000       Uiso       1.00
       B18          B  0.8503505  0.1146628  0.6807328    0.00000       Uiso       1.00
      C547          C  0.8050804  0.0390273  0.9979015    0.00000       Uiso       1.00
      C548          C  0.8111542  0.0511457  0.0192595    0.00000       Uiso       1.00
      C549          C  0.8382081  0.0699855  0.0139878    0.00000       Uiso       1.00
      C550          C  0.8438559  0.0808351  0.0356144    0.00000       Uiso       1.00
      C551          C  0.8228675  0.0717780  0.0628836    0.00000       Uiso       1.00
      C552          C  0.7958116  0.0525443  0.0677797    0.00000       Uiso       1.00
      C553          C  0.7892392  0.0437280  0.0467599    0.00000       Uiso       1.00
       O37          O  0.8240727  0.0430217  0.9699485    0.00000       Uiso       1.00
      H253          H  0.7800238  0.0431027  0.0877274    0.00000       Uiso       1.00
      C554          C  0.6230291  0.9837100  0.1970506    0.00000       Uiso       1.00
      C555          C  0.6443646  0.9897479  0.1696400    0.00000       Uiso       1.00
      C556          C  0.6389753  0.9814529  0.1479492    0.00000       Uiso       1.00
      C557          C  0.6605849  0.9867807  0.1206103    0.00000       Uiso       1.00
      C558          C  0.6879302  0.9989104  0.1142490    0.00000       Uiso       1.00
      C559          C  0.6928732  0.0066859  0.1363781    0.00000       Uiso       1.00
      C560          C  0.6718647  0.0043095  0.1640107    0.00000       Uiso       1.00
       O38          O  0.5951119  0.9687703  0.2058710    0.00000       Uiso       1.00
      H254          H  0.6179495  0.9710456  0.1523566    0.00000       Uiso       1.00
      H255          H  0.6555942  0.9811139  0.1046255    0.00000       Uiso       1.00
      H256          H  0.7128895  0.0131714  0.1321640    0.00000       Uiso       1.00
      C561          C  0.8221625  0.1104855  0.1798873    0.00000       Uiso       1.00
      C562          C  0.7947590  0.0951863  0.1859653    0.00000       Uiso       1.00
      C563          C  0.7730748  0.0922692  0.2130528    0.00000       Uiso       1.00
      C564          C  0.7457297  0.0759804  0.2188019    0.00000       Uiso       1.00
      C565          C  0.7393620  0.0607747  0.1978190    0.00000       Uiso       1.00
      C566          C  0.7614938  0.0636377  0.1707370    0.00000       Uiso       1.00
      C567          C  0.7891262  0.0822797  0.1641134    0.00000       Uiso       1.00
       O39          O  0.8308972  0.1234981  0.1990554    0.00000       Uiso       1.00
      H257          H  0.7775178  0.1028932  0.2296470    0.00000       Uiso       1.00
      H258          H  0.7297642  0.0753020  0.2397854    0.00000       Uiso       1.00
      H259          H  0.7573259  0.0501383  0.1549005    0.00000       Uiso       1.00
      C568          C  0.8435256  0.1133026  0.1532821    0.00000       Uiso       1.00
      C569          C  0.8388123  0.1018593  0.1310157    0.00000       Uiso       1.00
      C570          C  0.8604557  0.1046916  0.1038907    0.00000       Uiso       1.00
      C571          C  0.8553162  0.0941081  0.0819259    0.00000       Uiso       1.00
      C572          C  0.8286776  0.0820132  0.0863435    0.00000       Uiso       1.00
      C573          C  0.8071970  0.0796652  0.1137374    0.00000       Uiso       1.00
      C574          C  0.8114088  0.0873821  0.1363213    0.00000       Uiso       1.00
       O40          O  0.8690196  0.1290034  0.1516560    0.00000       Uiso       1.00
      H260          H  0.7874048  0.0733108  0.1174657    0.00000       Uiso       1.00
      C575          C  0.6283050  0.9917878  0.2183750    0.00000       Uiso       1.00
      C576          C  0.6552598  0.0072941  0.2136684    0.00000       Uiso       1.00
      C577          C  0.6606178  0.0155541  0.2353774    0.00000       Uiso       1.00
      C578          C  0.6877376  0.0319413  0.2303034    0.00000       Uiso       1.00
      C579          C  0.7100478  0.0419646  0.2036405    0.00000       Uiso       1.00
      C580          C  0.7041813  0.0338130  0.1821304    0.00000       Uiso       1.00
      C581          C  0.6773768  0.0148736  0.1862977    0.00000       Uiso       1.00
       O41          O  0.6045235  0.9836202  0.2439298    0.00000       Uiso       1.00
      H261          H  0.6436671  0.0090116  0.2562264    0.00000       Uiso       1.00
      H262          H  0.6909566  0.0367917  0.2474620    0.00000       Uiso       1.00
      H263          H  0.7203150  0.0434604  0.1623047    0.00000       Uiso       1.00
      C582          C  0.7784520  0.0204689  0.0032184    0.00000       Uiso       1.00
      C583          C  0.7562066  0.0137242  0.0301637    0.00000       Uiso       1.00
      C584          C  0.7291443  0.9949130  0.0355079    0.00000       Uiso       1.00
      C585          C  0.7070852  0.9892422  0.0626208    0.00000       Uiso       1.00
      C586          C  0.7114287  0.0036068  0.0849383    0.00000       Uiso       1.00
      C587          C  0.7388074  0.0228222  0.0790776    0.00000       Uiso       1.00
      C588          C  0.7614469  0.0265261  0.0522716    0.00000       Uiso       1.00
       O42          O  0.7765917  0.0103976  0.9794813    0.00000       Uiso       1.00
      H264          H  0.7252843  0.9844929  0.0185335    0.00000       Uiso       1.00
      H265          H  0.6867198  0.9737182  0.0658136    0.00000       Uiso       1.00
      H266          H  0.7425384  0.0361694  0.0951887    0.00000       Uiso       1.00
       B19          B  0.8057678  0.0248335  0.9585230    0.00000       Uiso       1.00
       B20          B  0.5835785  0.9689326  0.2356961    0.00000       Uiso       1.00
       B21          B  0.8607271  0.1352595  0.1807764    0.00000       Uiso       1.00
      H267          H  0.8550094  0.0765140  0.9931327    0.00000       Uiso       1.00
      H268          H  0.8648406  0.0961067  0.0306331    0.00000       Uiso       1.00
      H269          H  0.8813645  0.1149045  0.0996577    0.00000       Uiso       1.00
      H270          H  0.8724802  0.0958014  0.0615271    0.00000       Uiso       1.00
      C589          C  0.1058688  0.4980113  0.2142099    0.00000       Uiso       1.00
      C590          C  0.1100286  0.5193481  0.2039724    0.00000       Uiso       1.00
      C591          C  0.0965424  0.5140004  0.1904076    0.00000       Uiso       1.00
      C592          C  0.1020446  0.5356096  0.1791669    0.00000       Uiso       1.00
      C593          C  0.1224201  0.5628785  0.1797386    0.00000       Uiso       1.00
      C594          C  0.1360176  0.5677915  0.1931913    0.00000       Uiso       1.00
      C595          C  0.1286679  0.5468140  0.2071711    0.00000       Uiso       1.00
       O43          O  0.0890086  0.4701183  0.2120306    0.00000       Uiso       1.00
      H271          H  0.0816399  0.4930032  0.1887158    0.00000       Uiso       1.00
      H272          H  0.0903788  0.5306853  0.1698809    0.00000       Uiso       1.00
      H273          H  0.1535613  0.5877324  0.1914221    0.00000       Uiso       1.00
      C596          C  0.2328373  0.6970375  0.2691246    0.00000       Uiso       1.00
      C597          C  0.2156608  0.6696225  0.2649642    0.00000       Uiso       1.00
      C598          C  0.2075231  0.6479194  0.2784497    0.00000       Uiso       1.00
      C599          C  0.1914164  0.6205711  0.2729472    0.00000       Uiso       1.00
      C600          C  0.1845225  0.6142491  0.2525720    0.00000       Uiso       1.00
      C601          C  0.1932065  0.6363862  0.2389749    0.00000       Uiso       1.00
      C602          C  0.2068342  0.6639942  0.2463249    0.00000       Uiso       1.00
       O44          O  0.2438698  0.7058912  0.2859849    0.00000       Uiso       1.00
      H274          H  0.2136186  0.6523235  0.2933519    0.00000       Uiso       1.00
      H275          H  0.1846756  0.6045439  0.2846126    0.00000       Uiso       1.00
      H276          H  0.1908092  0.6322195  0.2214313    0.00000       Uiso       1.00
      C603          C  0.1607797  0.6798929  0.1421570    0.00000       Uiso       1.00
      C604          C  0.1710184  0.6859716  0.1593335    0.00000       Uiso       1.00
      C605          C  0.1845834  0.7130229  0.1674721    0.00000       Uiso       1.00
      C606          C  0.1958248  0.7187619  0.1835787    0.00000       Uiso       1.00
      C607          C  0.1952537  0.6978149  0.1904715    0.00000       Uiso       1.00
      C608          C  0.1818010  0.6707645  0.1817866    0.00000       Uiso       1.00
      C609          C  0.1678206  0.6641340  0.1681593    0.00000       Uiso       1.00
       O45          O  0.1629577  0.6989318  0.1311252    0.00000       Uiso       1.00
      H277          H  0.1862748  0.7296171  0.1613781    0.00000       Uiso       1.00
      H278          H  0.2051110  0.7397138  0.1903205    0.00000       Uiso       1.00
      H279          H  0.1835710  0.6549904  0.1841830    0.00000       Uiso       1.00
      C610          C  0.1479639  0.6533720  0.1336998    0.00000       Uiso       1.00
      C611          C  0.1431041  0.6311191  0.1432581    0.00000       Uiso       1.00
      C612          C  0.1295188  0.6040571  0.1351536    0.00000       Uiso       1.00
      C613          C  0.1236773  0.5819952  0.1460543    0.00000       Uiso       1.00
      C614          C  0.1297643  0.5863551  0.1665916    0.00000       Uiso       1.00
      C615          C  0.1431520  0.6137288  0.1747128    0.00000       Uiso       1.00
      C616          C  0.1518302  0.6363544  0.1618753    0.00000       Uiso       1.00
       O46          O  0.1399912  0.6516454  0.1161578    0.00000       Uiso       1.00
      H280          H  0.1235937  0.6001698  0.1202462    0.00000       Uiso       1.00
      H281          H  0.1141763  0.5615945  0.1384182    0.00000       Uiso       1.00
      H282          H  0.1454002  0.6174396  0.1922695    0.00000       Uiso       1.00
      C617          C  0.2412940  0.7183104  0.2554204    0.00000       Uiso       1.00
      C618          C  0.2317350  0.7136117  0.2380276    0.00000       Uiso       1.00
      C619          C  0.2398391  0.7353015  0.2245518    0.00000       Uiso       1.00
      C620          C  0.2289381  0.7302423  0.2083316    0.00000       Uiso       1.00
      C621          C  0.2084009  0.7036179  0.2066038    0.00000       Uiso       1.00
      C622          C  0.2002799  0.6821092  0.2205894    0.00000       Uiso       1.00
      C623          C  0.2131178  0.6862684  0.2345364    0.00000       Uiso       1.00
       O47          O  0.2588362  0.7438249  0.2616664    0.00000       Uiso       1.00
      H283          H  0.2547464  0.7561339  0.2265905    0.00000       Uiso       1.00
      H284          H  0.2365738  0.7473794  0.1974327    0.00000       Uiso       1.00
      H285          H  0.1827233  0.6623044  0.2220517    0.00000       Uiso       1.00
      C624          C  0.1195739  0.5032589  0.2270256    0.00000       Uiso       1.00
      C625          C  0.1369667  0.5302108  0.2318863    0.00000       Uiso       1.00
      C626          C  0.1504437  0.5355833  0.2454712    0.00000       Uiso       1.00
      C627          C  0.1666636  0.5627047  0.2513134    0.00000       Uiso       1.00
      C628          C  0.1683902  0.5849692  0.2452274    0.00000       Uiso       1.00
      C629          C  0.1544038  0.5791041  0.2318404    0.00000       Uiso       1.00
      C630          C  0.1404570  0.5523190  0.2231613    0.00000       Uiso       1.00
       O48          O  0.1133283  0.4794705  0.2349967    0.00000       Uiso       1.00
      H286          H  0.1484069  0.5186386  0.2513956    0.00000       Uiso       1.00
      H287          H  0.1775637  0.5659689  0.2608139    0.00000       Uiso       1.00
      H288          H  0.1529408  0.5951983  0.2295932    0.00000       Uiso       1.00
       B22          B  0.0938998  0.4585460  0.2253370    0.00000       Uiso       1.00
       B23          B  0.2603325  0.7356614  0.2810945    0.00000       Uiso       1.00
       B24          B  0.1496504  0.6807335  0.1146623    0.00000       Uiso       1.00
