data_70
_audit_creation_date              0000-00-00
_audit_creation_method            'LanYouShi'
_symmetry_space_group_name_H-M    'P1'
_cell_length_a                    55.6655006
_cell_length_b                    78.7228012
_cell_length_c                    55.6665993
_cell_angle_alpha                 90.0000000
_cell_angle_beta                  90.0000000
_cell_angle_gamma                 135.0000000
loop_
_atom_site_label
_atom_site_type_symbol
_atom_site_fract_x
_atom_site_fract_y
_atom_site_fract_z
_atom_site_U_iso_or_equiv
_atom_site_adp_type
_atom_site_occupancy
        C1          C  0.5000032  0.6193206  0.3349338    0.00000       Uiso       1.00
        C2          C  0.4693957  0.5978510  0.3442090    0.00000       Uiso       1.00
        C3          C  0.4693320  0.5854306  0.3624530    0.00000       Uiso       1.00
        C4          C  0.5306104  0.6284584  0.3442096    0.00000       Uiso       1.00
        C5          C  0.5307246  0.6160824  0.3623625    0.00000       Uiso       1.00
        C6          C  0.5000493  0.5943020  0.3717626    0.00000       Uiso       1.00
        H1          H  0.3074246  0.4311543  0.6307681    0.00000       Uiso       1.00
        H2          H  0.6920374  0.6234134  0.6310307    0.00000       Uiso       1.00
        H3          H  0.5558093  0.6459785  0.3368960    0.00000       Uiso       1.00
        C7          C  0.2613584  0.3806822  0.6650601    0.00000       Uiso       1.00
        C8          C  0.2736903  0.4021518  0.6557845    0.00000       Uiso       1.00
        C9          C  0.2985570  0.4146423  0.6376321    0.00000       Uiso       1.00
       C10          C  0.2736903  0.3715444  0.6557851    0.00000       Uiso       1.00
       C11          C  0.2984676  0.3839012  0.6375414    0.00000       Uiso       1.00
       C12          C  0.3114423  0.4057472  0.6282319    0.00000       Uiso       1.00
        H4          H  0.4452188  0.5686288  0.3689646    0.00000       Uiso       1.00
        H5          H  0.4451240  0.3762761  0.3692293    0.00000       Uiso       1.00
        H6          H  0.2638489  0.4098305  0.6630979    0.00000       Uiso       1.00
       C13          C  0.7386346  0.6193206  0.6650646    0.00000       Uiso       1.00
       C14          C  0.7263030  0.5978510  0.6557893    0.00000       Uiso       1.00
       C15          C  0.7014362  0.5853601  0.6376371    0.00000       Uiso       1.00
       C16          C  0.7263030  0.6284584  0.6557887    0.00000       Uiso       1.00
       C17          C  0.7015269  0.6161017  0.6375441    0.00000       Uiso       1.00
       C18          C  0.6885518  0.5942553  0.6282358    0.00000       Uiso       1.00
        H7          H  0.5547858  0.4313728  0.3689720    0.00000       Uiso       1.00
        H8          H  0.5548809  0.6237270  0.3692267    0.00000       Uiso       1.00
        H9          H  0.7361442  0.5901723  0.6631035    0.00000       Uiso       1.00
       C19          C  0.5000032  0.3806822  0.3349388    0.00000       Uiso       1.00
       C20          C  0.5306104  0.4021518  0.3442143    0.00000       Uiso       1.00
       C21          C  0.5306730  0.4145715  0.3624588    0.00000       Uiso       1.00
       C22          C  0.4693956  0.3715444  0.3442137    0.00000       Uiso       1.00
       C23          C  0.4692804  0.3839203  0.3623660    0.00000       Uiso       1.00
       C24          C  0.4999552  0.4057001  0.3717671    0.00000       Uiso       1.00
       H10          H  0.6925676  0.5688476  0.6307737    0.00000       Uiso       1.00
       H11          H  0.3079581  0.3765898  0.6310297    0.00000       Uiso       1.00
       C25          C  0.5000011  0.5000017  0.5000001    0.00000       Uiso       1.00
       H12          H  0.4441970  0.3540243  0.3368998    0.00000       Uiso       1.00
        F1          F  0.4364606  0.5878147  0.3346493    0.00000       Uiso       1.00
        F2          F  0.5635458  0.4121880  0.3346555    0.00000       Uiso       1.00
        F3          F  0.7391657  0.6513575  0.6653478    0.00000       Uiso       1.00
        F4          F  0.2608273  0.3486453  0.6653446    0.00000       Uiso       1.00
       C26          C  0.5001474  0.5808938  0.3909643    0.00000       Uiso       1.00
       C27          C  0.4764351  0.5693588  0.4099126    0.00000       Uiso       1.00
       C28          C  0.4765081  0.5567687  0.4277962    0.00000       Uiso       1.00
       C29          C  0.5239466  0.5794347  0.3904971    0.00000       Uiso       1.00
       C30          C  0.5240063  0.5668318  0.4083588    0.00000       Uiso       1.00
       C31          C  0.5002923  0.5552813  0.4273261    0.00000       Uiso       1.00
       H13          H  0.4108522  0.4765383  0.5929867    0.00000       Uiso       1.00
       H14          H  0.6387881  0.5902867  0.5577318    0.00000       Uiso       1.00
       H15          H  0.5421676  0.5876584  0.3759916    0.00000       Uiso       1.00
       C32          C  0.3383569  0.4192534  0.6090305    0.00000       Uiso       1.00
       C33          C  0.3650768  0.4445115  0.6094997    0.00000       Uiso       1.00
       C34          C  0.3903436  0.4571745  0.5916391    0.00000       Uiso       1.00
       C35          C  0.3377131  0.4070762  0.5900812    0.00000       Uiso       1.00
       C36          C  0.3629676  0.4197400  0.5721985    0.00000       Uiso       1.00
       C37          C  0.3897288  0.4450110  0.5726707    0.00000       Uiso       1.00
       H16          H  0.4581964  0.5484821  0.4422509    0.00000       Uiso       1.00
       H17          H  0.4577835  0.4343198  0.4070147    0.00000       Uiso       1.00
       H18          H  0.3668517  0.4545080  0.6240069    0.00000       Uiso       1.00
       C38          C  0.6616380  0.5807489  0.6090341    0.00000       Uiso       1.00
       C39          C  0.6349120  0.5554913  0.6095080    0.00000       Uiso       1.00
       C40          C  0.6096475  0.5428290  0.5916454    0.00000       Uiso       1.00
       C41          C  0.6622904  0.5929253  0.5900786    0.00000       Uiso       1.00
       C42          C  0.6370396  0.5802624  0.5721934    0.00000       Uiso       1.00
       C43          C  0.6102720  0.5549915  0.5726705    0.00000       Uiso       1.00
       H19          H  0.5417854  0.4514993  0.4422679    0.00000       Uiso       1.00
       H20          H  0.5422300  0.5656912  0.4070151    0.00000       Uiso       1.00
       H21          H  0.6331321  0.5454952  0.6240185    0.00000       Uiso       1.00
       C44          C  0.4998553  0.4191073  0.3909687    0.00000       Uiso       1.00
       C45          C  0.5235578  0.4306339  0.4099230    0.00000       Uiso       1.00
       C46          C  0.5234820  0.4432214  0.4278083    0.00000       Uiso       1.00
       C47          C  0.4760627  0.4205725  0.3904960    0.00000       Uiso       1.00
       C48          C  0.4760015  0.4331741  0.4083590    0.00000       Uiso       1.00
       C49          C  0.4997042  0.4447149  0.4273327    0.00000       Uiso       1.00
       H22          H  0.5891342  0.5234655  0.5929918    0.00000       Uiso       1.00
       H23          H  0.3612313  0.4097169  0.5577427    0.00000       Uiso       1.00
       H24          H  0.4578481  0.4123541  0.3759869    0.00000       Uiso       1.00
        F5          F  0.4512247  0.5708210  0.4116167    0.00000       Uiso       1.00
        F6          F  0.5487596  0.4291639  0.4116327    0.00000       Uiso       1.00
        F7          F  0.6904356  0.6195970  0.5883681    0.00000       Uiso       1.00
        F8          F  0.3095764  0.3804037  0.5883760    0.00000       Uiso       1.00
       C50          C  0.5002356  0.5416593  0.4463741    0.00000       Uiso       1.00
       C51          C  0.4695904  0.5200790  0.4559433    0.00000       Uiso       1.00
       C52          C  0.4694865  0.5070979  0.4733686    0.00000       Uiso       1.00
       C53          C  0.5307640  0.5497357  0.4547507    0.00000       Uiso       1.00
       C54          C  0.5306463  0.5367443  0.4721569    0.00000       Uiso       1.00
       C55          C  0.5000709  0.5155433  0.4825321    0.00000       Uiso       1.00
       H25          H  0.4682766  0.5114842  0.5226461    0.00000       Uiso       1.00
       H26          H  0.5349056  0.5448385  0.5206748    0.00000       Uiso       1.00
       H27          H  0.5549137  0.5661834  0.4478099    0.00000       Uiso       1.00
       C56          C  0.4169161  0.4585758  0.5536229    0.00000       Uiso       1.00
       C57          C  0.4312923  0.4810281  0.5452477    0.00000       Uiso       1.00
       C58          C  0.4571604  0.4939040  0.5278428    0.00000       Uiso       1.00
       C59          C  0.4294314  0.4495110  0.5440537    0.00000       Uiso       1.00
       C60          C  0.4552924  0.4623903  0.5266299    0.00000       Uiso       1.00
       C61          C  0.4689878  0.4845302  0.5174680    0.00000       Uiso       1.00
       H28          H  0.4452294  0.4900642  0.4793198    0.00000       Uiso       1.00
       H29          H  0.4453060  0.4567966  0.4773464    0.00000       Uiso       1.00
       H30          H  0.4225444  0.4887277  0.5521919    0.00000       Uiso       1.00
       C62          C  0.5830851  0.5414253  0.5536229    0.00000       Uiso       1.00
       C63          C  0.5687076  0.5189722  0.5452488    0.00000       Uiso       1.00
       C64          C  0.5428410  0.5060979  0.5278440    0.00000       Uiso       1.00
       C65          C  0.5705705  0.5504901  0.5440538    0.00000       Uiso       1.00
       C66          C  0.5447120  0.5376132  0.5266289    0.00000       Uiso       1.00
       C67          C  0.5310167  0.5154735  0.5174673    0.00000       Uiso       1.00
       H31          H  0.5547659  0.5099310  0.4793288    0.00000       Uiso       1.00
       H32          H  0.5546927  0.5432132  0.4773571    0.00000       Uiso       1.00
       H33          H  0.5774536  0.5112705  0.5521898    0.00000       Uiso       1.00
       C68          C  0.4997584  0.4583365  0.4463795    0.00000       Uiso       1.00
       C69          C  0.5304037  0.4799149  0.4559506    0.00000       Uiso       1.00
       C70          C  0.5305097  0.4928988  0.4733734    0.00000       Uiso       1.00
       C71          C  0.4692302  0.4502647  0.4547502    0.00000       Uiso       1.00
       C72          C  0.4693508  0.4632598  0.4721533    0.00000       Uiso       1.00
       C73          C  0.4999268  0.4844583  0.4825318    0.00000       Uiso       1.00
       H34          H  0.5317311  0.4885193  0.5226473    0.00000       Uiso       1.00
       H35          H  0.4651081  0.4551706  0.5206791    0.00000       Uiso       1.00
       H36          H  0.4450786  0.4338188  0.4478081    0.00000       Uiso       1.00
        F9          F  0.4364385  0.5100119  0.4468760    0.00000       Uiso       1.00
       F10          F  0.5635528  0.4899730  0.4468893    0.00000       Uiso       1.00
       F11          F  0.5835954  0.5735774  0.5531201    0.00000       Uiso       1.00
       F12          F  0.4164168  0.4264275  0.5531225    0.00000       Uiso       1.00
       C74          C  0.0457399  0.3806823  0.8806855    0.00000       Uiso       1.00
       C75          C  0.0273260  0.3715444  0.9021544    0.00000       Uiso       1.00
       C76          C  0.0214389  0.3839016  0.9145743    0.00000       Uiso       1.00
       C77          C  0.0579340  0.4021519  0.8715477    0.00000       Uiso       1.00
       C78          C  0.0522715  0.4146425  0.8839231    0.00000       Uiso       1.00
       C79          C  0.0339758  0.4057477  0.9057028    0.00000       Uiso       1.00
       H37          H  0.7454885  0.3762758  0.0688427    0.00000       Uiso       1.00
       H38          H  0.9375875  0.5686299  0.8765869    0.00000       Uiso       1.00
       H39          H  0.0729271  0.4098306  0.8540282    0.00000       Uiso       1.00
       C80          C  0.7156015  0.3806823  0.1193130    0.00000       Uiso       1.00
       C81          C  0.7157397  0.3715444  0.0978441    0.00000       Uiso       1.00
       C82          C  0.7462689  0.3839203  0.0853542    0.00000       Uiso       1.00
       C83          C  0.7463465  0.4021519  0.1284509    0.00000       Uiso       1.00
       C84          C  0.7770112  0.4145720  0.1160946    0.00000       Uiso       1.00
       C85          C  0.7774496  0.4057005  0.0942493    0.00000       Uiso       1.00
       H40          H  0.0076154  0.3765903  0.9313756    0.00000       Uiso       1.00
       H41          H  0.1996085  0.5688483  0.1237248    0.00000       Uiso       1.00
       H42          H  0.6909059  0.3540244  0.0901654    0.00000       Uiso       1.00
       C86          C  0.9542446  0.6193206  0.8806789    0.00000       Uiso       1.00
       C87          C  0.9726576  0.6284585  0.9021482    0.00000       Uiso       1.00
       C88          C  0.9784335  0.6160821  0.9146393    0.00000       Uiso       1.00
       C89          C  0.9420508  0.5978510  0.8715415    0.00000       Uiso       1.00
       C90          C  0.9478754  0.5854311  0.8838983    0.00000       Uiso       1.00
       C91          C  0.9660549  0.5943023  0.9057444    0.00000       Uiso       1.00
       H43          H  0.2544332  0.6234135  0.0686293    0.00000       Uiso       1.00
       H44          H  0.0619194  0.4311543  0.8762785    0.00000       Uiso       1.00
       H45          H  0.9828635  0.6459786  0.9098267    0.00000       Uiso       1.00
       C92          C  0.2843731  0.6193207  0.1193195    0.00000       Uiso       1.00
       C93          C  0.2842358  0.6284586  0.0978501    0.00000       Uiso       1.00
       C94          C  0.2536343  0.6161018  0.0854303    0.00000       Uiso       1.00
       C95          C  0.2536278  0.5978511  0.1284569    0.00000       Uiso       1.00
       C96          C  0.2229845  0.5853604  0.1160809    0.00000       Uiso       1.00
       C97          C  0.2224790  0.5942556  0.0943014    0.00000       Uiso       1.00
       H46          H  0.9929405  0.6237260  0.9311515    0.00000       Uiso       1.00
       H47          H  0.8003249  0.4313737  0.1234060    0.00000       Uiso       1.00
       C98          C  0.9999894  0.5000024  0.9999986    0.00000       Uiso       1.00
       H48          H  0.2532628  0.5901724  0.1459768    0.00000       Uiso       1.00
       F13          F  0.0139863  0.3486454  0.9121907    0.00000       Uiso       1.00
       F14          F  0.3166945  0.6513576  0.0878143    0.00000       Uiso       1.00
       F15          F  0.9224556  0.5878148  0.8486427    0.00000       Uiso       1.00
       F16          F  0.7468228  0.4121881  0.1513492    0.00000       Uiso       1.00
       C99          C  0.0282804  0.4192544  0.9191104    0.00000       Uiso       1.00
      C100          C  0.9971535  0.4070775  0.9306448    0.00000       Uiso       1.00
      C101          C  0.9919329  0.4197409  0.9432343    0.00000       Uiso       1.00
      C102          C  0.0540063  0.4445127  0.9205695    0.00000       Uiso       1.00
      C103          C  0.0488072  0.4571757  0.9331717    0.00000       Uiso       1.00
      C104          C  0.0176759  0.4450125  0.9447216    0.00000       Uiso       1.00
       H49          H  0.8413156  0.4343187  0.0234603    0.00000       Uiso       1.00
       H50          H  0.9907627  0.5485057  0.9097143    0.00000       Uiso       1.00
       H51          H  0.0785094  0.4545097  0.9123462    0.00000       Uiso       1.00
      C105          C  0.8100599  0.4191085  0.0807437    0.00000       Uiso       1.00
      C106          C  0.8110531  0.4205703  0.0554862    0.00000       Uiso       1.00
      C107          C  0.8415180  0.4331738  0.0428237    0.00000       Uiso       1.00
      C108          C  0.8405426  0.4306415  0.0929210    0.00000       Uiso       1.00
      C109          C  0.8710166  0.4432320  0.0802579    0.00000       Uiso       1.00
      C110          C  0.8720350  0.4447221  0.0549873    0.00000       Uiso       1.00
       H52          H  0.9674528  0.4097161  0.9515204    0.00000       Uiso       1.00
       H53          H  0.1164392  0.5234649  0.0656816    0.00000       Uiso       1.00
       H54          H  0.7883244  0.4123491  0.0454895    0.00000       Uiso       1.00
      C111          C  0.9718487  0.5808945  0.9192510    0.00000       Uiso       1.00
      C112          C  0.9699057  0.5794261  0.9445080    0.00000       Uiso       1.00
      C113          C  0.9751655  0.5668234  0.9571704    0.00000       Uiso       1.00
      C114          C  0.9792801  0.5693701  0.9070751    0.00000       Uiso       1.00
      C115          C  0.9845769  0.5567819  0.9197382    0.00000       Uiso       1.00
      C116          C  0.9826025  0.5552851  0.9450085    0.00000       Uiso       1.00
       H55          H  0.1480101  0.5902880  0.0485018    0.00000       Uiso       1.00
       H56          H  0.0695155  0.4765399  0.9343123    0.00000       Uiso       1.00
       H57          H  0.9636112  0.5876426  0.9545036    0.00000       Uiso       1.00
      C117          C  0.1897703  0.5807488  0.0808941    0.00000       Uiso       1.00
      C118          C  0.1829922  0.5929251  0.0693673    0.00000       Uiso       1.00
      C119          C  0.1524438  0.5802622  0.0567798    0.00000       Uiso       1.00
      C120          C  0.1649846  0.5554910  0.0794289    0.00000       Uiso       1.00
      C121          C  0.1344589  0.5428286  0.0668273    0.00000       Uiso       1.00
      C122          C  0.1276475  0.5549908  0.0552862    0.00000       Uiso       1.00
       H58          H  0.9726690  0.5656737  0.9765334    0.00000       Uiso       1.00
       H59          H  0.8937591  0.4515184  0.0902810    0.00000       Uiso       1.00
       H60          H  0.1694972  0.5454945  0.0876474    0.00000       Uiso       1.00
       F17          F  0.9687762  0.3804048  0.9291826    0.00000       Uiso       1.00
       F18          F  0.2079550  0.6195971  0.0708373    0.00000       Uiso       1.00
       F19          F  0.9824646  0.5708436  0.8804040    0.00000       Uiso       1.00
       F20          F  0.8407831  0.4291773  0.1195930    0.00000       Uiso       1.00
      C123          C  0.0121932  0.4585782  0.9583430    0.00000       Uiso       1.00
      C124          C  0.9935577  0.4495135  0.9799227    0.00000       Uiso       1.00
      C125          C  0.9890096  0.4623910  0.9929031    0.00000       Uiso       1.00
      C126          C  0.0262694  0.4810305  0.9502666    0.00000       Uiso       1.00
      C127          C  0.0217368  0.4939045  0.9632574    0.00000       Uiso       1.00
      C128          C  0.0019865  0.4845302  0.9844576    0.00000       Uiso       1.00
       H61          H  0.9341358  0.4567958  0.9885159    0.00000       Uiso       1.00
       H62          H  0.9693831  0.4900704  0.9551623    0.00000       Uiso       1.00
       H63          H  0.0409126  0.4887323  0.9338194    0.00000       Uiso       1.00
      C129          C  0.9047059  0.4583443  0.0414232    0.00000       Uiso       1.00
      C130          C  0.9050053  0.4502680  0.0189715    0.00000       Uiso       1.00
      C131          C  0.9354029  0.4632599  0.0060963    0.00000       Uiso       1.00
      C132          C  0.9358555  0.4799242  0.0504880    0.00000       Uiso       1.00
      C133          C  0.9662613  0.4929056  0.0376093    0.00000       Uiso       1.00
      C134          C  0.9669791  0.4844609  0.0154701    0.00000       Uiso       1.00
       H64          H  0.9758345  0.4551677  0.0099370    0.00000       Uiso       1.00
       H65          H  0.0111530  0.4885120  0.0432040    0.00000       Uiso       1.00
       H66          H  0.8816134  0.4338206  0.0112720    0.00000       Uiso       1.00
      C135          C  0.9880288  0.5416641  0.9585749    0.00000       Uiso       1.00
      C136          C  0.0044791  0.5497394  0.9810276    0.00000       Uiso       1.00
      C137          C  0.0088911  0.5367467  0.9939021    0.00000       Uiso       1.00
      C138          C  0.9760182  0.5200843  0.9495104    0.00000       Uiso       1.00
      C139          C  0.9804610  0.5071024  0.9623874    0.00000       Uiso       1.00
      C140          C  0.9980667  0.5155466  0.9845268    0.00000       Uiso       1.00
       H67          H  0.0654982  0.5448375  0.9900699    0.00000       Uiso       1.00
       H68          H  0.0341147  0.5114822  0.9567885    0.00000       Uiso       1.00
       H69          H  0.0139861  0.5661873  0.9887291    0.00000       Uiso       1.00
      C141          C  0.0950335  0.5414239  0.0416646    0.00000       Uiso       1.00
      C142          C  0.0945298  0.5504909  0.0200865    0.00000       Uiso       1.00
      C143          C  0.0642291  0.5376134  0.0071025    0.00000       Uiso       1.00
      C144          C  0.0642057  0.5189676  0.0497361    0.00000       Uiso       1.00
      C145          C  0.0339282  0.5060934  0.0367409    0.00000       Uiso       1.00
      C146          C  0.0329277  0.5154712  0.0155426    0.00000       Uiso       1.00
       H70          H  0.0205563  0.5432154  0.0114810    0.00000       Uiso       1.00
       H71          H  0.9892478  0.5099409  0.0448290    0.00000       Uiso       1.00
       H72          H  0.0634416  0.5112617  0.0661817    0.00000       Uiso       1.00
       F21          F  0.9795396  0.4264285  0.9899897    0.00000       Uiso       1.00
       F22          F  0.1266828  0.5735819  0.0100288    0.00000       Uiso       1.00
       F23          F  0.9568898  0.5100222  0.9264234    0.00000       Uiso       1.00
       F24          F  0.9368554  0.4899933  0.0735708    0.00000       Uiso       1.00
      C147          C  0.2843732  0.1650678  0.1193084    0.00000       Uiso       1.00
      C148          C  0.2536279  0.1557922  0.1284456    0.00000       Uiso       1.00
      C149          C  0.2229637  0.1375481  0.1160885    0.00000       Uiso       1.00
      C150          C  0.2842359  0.1557922  0.0978394    0.00000       Uiso       1.00
      C151          C  0.2537072  0.1376393  0.0853488    0.00000       Uiso       1.00
      C152          C  0.2225261  0.1282388  0.0942430    0.00000       Uiso       1.00
       H73          H  0.8003660  0.8692276  0.1237112    0.00000       Uiso       1.00
       H74          H  0.9923699  0.8689688  0.9313643    0.00000       Uiso       1.00
       H75          H  0.3090700  0.1631061  0.0901612    0.00000       Uiso       1.00
      C153          C  0.7156016  0.8349351  0.1193038    0.00000       Uiso       1.00
      C154          C  0.7463465  0.8442107  0.1284419    0.00000       Uiso       1.00
      C155          C  0.7769904  0.8623638  0.1160665    0.00000       Uiso       1.00
      C156          C  0.7157398  0.8442107  0.0978345    0.00000       Uiso       1.00
      C157          C  0.7463412  0.8624550  0.0854149    0.00000       Uiso       1.00
      C158          C  0.7774965  0.8717645  0.0942866    0.00000       Uiso       1.00
       H76          H  0.1996499  0.1310363  0.1233993    0.00000       Uiso       1.00
       H77          H  0.0070405  0.1307754  0.9311409    0.00000       Uiso       1.00
       H78          H  0.7467110  0.8368967  0.1459617    0.00000       Uiso       1.00
      C159          C  0.9542446  0.8349352  0.8806745    0.00000       Uiso       1.00
      C160          C  0.9420509  0.8442108  0.8715364    0.00000       Uiso       1.00
      C161          C  0.9477121  0.8623633  0.8839122    0.00000       Uiso       1.00
      C162          C  0.9726576  0.8442108  0.9021438    0.00000       Uiso       1.00
      C163          C  0.9785454  0.8624555  0.9145632    0.00000       Uiso       1.00
      C164          C  0.9660080  0.8717644  0.9056918    0.00000       Uiso       1.00
       H79          H  0.0623966  0.1310338  0.8765779    0.00000       Uiso       1.00
       H80          H  0.2544881  0.1307752  0.0688375    0.00000       Uiso       1.00
       H81          H  0.9270585  0.8368968  0.8540166    0.00000       Uiso       1.00
      C165          C  0.0457398  0.1650677  0.8806697    0.00000       Uiso       1.00
      C166          C  0.0579340  0.1557921  0.8715324    0.00000       Uiso       1.00
      C167          C  0.0521084  0.1375470  0.8838891    0.00000       Uiso       1.00
      C168          C  0.0273260  0.1557921  0.9021386    0.00000       Uiso       1.00
      C169          C  0.0215488  0.1376392  0.9146292    0.00000       Uiso       1.00
      C170          C  0.0339276  0.1282380  0.9057347    0.00000       Uiso       1.00
       H82          H  0.9380634  0.8692269  0.8762683    0.00000       Uiso       1.00
       H83          H  0.7455423  0.8689672  0.0686134    0.00000       Uiso       1.00
      C171          C  0.9999887  0.0000004  0.9999879    0.00000       Uiso       1.00
       H84          H  0.0171197  0.1631060  0.9098167    0.00000       Uiso       1.00
       F25          F  0.2531507  0.1653517  0.1513440    0.00000       Uiso       1.00
       F26          F  0.0775301  0.1653515  0.8486340    0.00000       Uiso       1.00
       F27          F  0.9859970  0.8346514  0.9121803    0.00000       Uiso       1.00
       F28          F  0.6832815  0.8346512  0.0877980    0.00000       Uiso       1.00
      C172          C  0.1899164  0.1090369  0.0807363    0.00000       Uiso       1.00
      C173          C  0.1594322  0.0900880  0.0929128    0.00000       Uiso       1.00
      C174          C  0.1289587  0.0722043  0.0802494    0.00000       Uiso       1.00
      C175          C  0.1889255  0.1095046  0.0554785    0.00000       Uiso       1.00
      C176          C  0.1584610  0.0916428  0.0428156    0.00000       Uiso       1.00
      C177          C  0.1279425  0.0726749  0.0549783    0.00000       Uiso       1.00
       H85          H  0.8835346  0.9070110  0.0656704    0.00000       Uiso       1.00
       H86          H  0.0325438  0.9422688  0.9514874    0.00000       Uiso       1.00
       H87          H  0.2116554  0.1240106  0.0454819    0.00000       Uiso       1.00
      C178          C  0.8102050  0.8909666  0.0808791    0.00000       Uiso       1.00
      C179          C  0.8349939  0.8904974  0.0794178    0.00000       Uiso       1.00
      C180          C  0.8655185  0.9083586  0.0668148    0.00000       Uiso       1.00
      C181          C  0.8169780  0.9099165  0.0693461    0.00000       Uiso       1.00
      C182          C  0.8475252  0.9277998  0.0567561    0.00000       Uiso       1.00
      C183          C  0.8723241  0.9273276  0.0552666    0.00000       Uiso       1.00
       H88          H  0.1062168  0.0577491  0.0902738    0.00000       Uiso       1.00
       H89          H  0.0272961  0.0929883  0.9765246    0.00000       Uiso       1.00
       H90          H  0.8304827  0.8759898  0.0876391    0.00000       Uiso       1.00
      C184          C  0.9717031  0.8909662  0.9190990    0.00000       Uiso       1.00
      C185          C  0.9459715  0.8904921  0.9205669    0.00000       Uiso       1.00
      C186          C  0.9511717  0.9083549  0.9331690    0.00000       Uiso       1.00
      C187          C  0.0028358  0.9099218  0.9306234    0.00000       Uiso       1.00
      C188          C  0.0080579  0.9278072  0.9432112    0.00000       Uiso       1.00
      C189          C  0.9823090  0.9273300  0.9447073    0.00000       Uiso       1.00
       H91          H  0.0092243  0.0577357  0.9097031    0.00000       Uiso       1.00
       H92          H  0.1586650  0.0929869  0.0234517    0.00000       Uiso       1.00
       H93          H  0.9214650  0.8759815  0.9123505    0.00000       Uiso       1.00
      C190          C  0.0281323  0.1090358  0.9192415    0.00000       Uiso       1.00
      C191          C  0.0207046  0.0900813  0.9070656    0.00000       Uiso       1.00
      C192          C  0.0154060  0.0721954  0.9197285    0.00000       Uiso       1.00
      C193          C  0.0300691  0.1095079  0.9444988    0.00000       Uiso       1.00
      C194          C  0.0248069  0.0916443  0.9571611    0.00000       Uiso       1.00
      C195          C  0.0173741  0.0726704  0.9449994    0.00000       Uiso       1.00
       H94          H  0.9304618  0.9070085  0.9343184    0.00000       Uiso       1.00
       H95          H  0.8519588  0.9422562  0.0484697    0.00000       Uiso       1.00
       H96          H  0.0363598  0.1240172  0.9544949    0.00000       Uiso       1.00
       F29          F  0.1591893  0.0883833  0.1195849    0.00000       Uiso       1.00
       F30          F  0.0175260  0.0883721  0.8803942    0.00000       Uiso       1.00
       F31          F  0.0312179  0.9116322  0.9291505    0.00000       Uiso       1.00
       F32          F  0.7920107  0.9116217  0.0708098    0.00000       Uiso       1.00
      C196          C  0.0952726  0.0536267  0.0414126    0.00000       Uiso       1.00
      C197          C  0.0641225  0.0440571  0.0504767    0.00000       Uiso       1.00
      C198          C  0.0337164  0.0266318  0.0375992    0.00000       Uiso       1.00
      C199          C  0.0949732  0.0452505  0.0189610    0.00000       Uiso       1.00
      C200          C  0.0645757  0.0278441  0.0060870    0.00000       Uiso       1.00
      C201          C  0.0329990  0.0174685  0.0154607    0.00000       Uiso       1.00
       H97          H  0.9888232  0.9773535  0.0431944    0.00000       Uiso       1.00
       H98          H  0.0241511  0.9793255  0.0099211    0.00000       Uiso       1.00
       H99          H  0.1183621  0.0521915  0.0112596    0.00000       Uiso       1.00
      C202          C  0.9049377  0.9463761  0.0416450    0.00000       Uiso       1.00
      C203          C  0.9357650  0.9547514  0.0497215    0.00000       Uiso       1.00
      C204          C  0.9660465  0.9721568  0.0367301    0.00000       Uiso       1.00
      C205          C  0.9054432  0.9559460  0.0200652    0.00000       Uiso       1.00
      C206          C  0.9357470  0.9733703  0.0070844    0.00000       Uiso       1.00
      C207          C  0.9670486  0.9825323  0.0155293    0.00000       Uiso       1.00
      H100          H  0.0107312  0.0206804  0.0448220    0.00000       Uiso       1.00
      H101          H  0.9794375  0.0226544  0.0114778    0.00000       Uiso       1.00
      H102          H  0.9365195  0.9478066  0.0661687    0.00000       Uiso       1.00
      C208          C  0.9877902  0.9463777  0.9583279    0.00000       Uiso       1.00
      C209          C  0.9737118  0.9547521  0.9502523    0.00000       Uiso       1.00
      C210          C  0.9782422  0.9721572  0.9632443    0.00000       Uiso       1.00
      C211          C  0.0064245  0.9559466  0.9799073    0.00000       Uiso       1.00
      C212          C  0.0109722  0.9733716  0.9928887    0.00000       Uiso       1.00
      C213          C  0.9979938  0.9825336  0.9844443    0.00000       Uiso       1.00
      H103          H  0.0305926  0.0206731  0.9551538    0.00000       Uiso       1.00
      H104          H  0.0658450  0.0226441  0.9885091    0.00000       Uiso       1.00
      H105          H  0.9590697  0.9478114  0.9338046    0.00000       Uiso       1.00
      C214          C  0.0119479  0.0536230  0.9585664    0.00000       Uiso       1.00
      C215          C  0.0239554  0.0440519  0.9495000    0.00000       Uiso       1.00
      C216          C  0.0195155  0.0266284  0.9623775    0.00000       Uiso       1.00
      C217          C  0.9955036  0.0452517  0.9810221    0.00000       Uiso       1.00
      C218          C  0.9910946  0.0278480  0.9938962    0.00000       Uiso       1.00
      C219          C  0.0019156  0.0174694  0.9845191    0.00000       Uiso       1.00
      H106          H  0.9658607  0.9773540  0.9567755    0.00000       Uiso       1.00
      H107          H  0.9344789  0.9793216  0.9900487    0.00000       Uiso       1.00
      H108          H  0.9859996  0.0521938  0.9887274    0.00000       Uiso       1.00
       F33          F  0.0631221  0.0531243  0.0735610    0.00000       Uiso       1.00
       F34          F  0.0430758  0.0531138  0.9264097    0.00000       Uiso       1.00
       F35          F  0.0204447  0.9468799  0.9899697    0.00000       Uiso       1.00
       F36          F  0.8732911  0.9468772  0.0099959    0.00000       Uiso       1.00
      C220          C  0.7970411  0.6571054  0.7158598    0.00000       Uiso       1.00
      C221          C  0.8159468  0.6758814  0.7326311    0.00000       Uiso       1.00
      C222          C  0.8185880  0.6949521  0.7311237    0.00000       Uiso       1.00
      C223          C  0.8362091  0.7129530  0.7487635    0.00000       Uiso       1.00
      C224          C  0.8499961  0.7115765  0.7690822    0.00000       Uiso       1.00
      C225          C  0.8465847  0.6919945  0.7704191    0.00000       Uiso       1.00
      C226          C  0.8319584  0.6750424  0.7517096    0.00000       Uiso       1.00
        O1          O  0.7787832  0.6547111  0.6967069    0.00000       Uiso       1.00
      H109          H  0.8069217  0.6958434  0.7161600    0.00000       Uiso       1.00
      H110          H  0.8384785  0.7276940  0.7463418    0.00000       Uiso       1.00
      H111          H  0.8533911  0.6889970  0.7867923    0.00000       Uiso       1.00
      C227          C  0.9241511  0.6399952  0.8428629    0.00000       Uiso       1.00
      C228          C  0.9075269  0.6401353  0.8240793    0.00000       Uiso       1.00
      C229          C  0.8925877  0.6236995  0.8050126    0.00000       Uiso       1.00
      C230          C  0.8745618  0.6233194  0.7870172    0.00000       Uiso       1.00
      C231          C  0.8694086  0.6384841  0.7883974    0.00000       Uiso       1.00
      C232          C  0.8842751  0.6546684  0.8079706    0.00000       Uiso       1.00
      C233          C  0.9053192  0.6569956  0.8249146    0.00000       Uiso       1.00
        O2          O  0.9273968  0.6241082  0.8452709    0.00000       Uiso       1.00
      H112          H  0.8949687  0.6111289  0.8041242    0.00000       Uiso       1.00
      H113          H  0.8644974  0.6108400  0.7722825    0.00000       Uiso       1.00
      H114          H  0.8777195  0.6644780  0.8109784    0.00000       Uiso       1.00
      C234          C  0.9412637  0.7841585  0.8600107    0.00000       Uiso       1.00
      C235          C  0.9433031  0.7674068  0.8598592    0.00000       Uiso       1.00
      C236          C  0.9639046  0.7689289  0.8762757    0.00000       Uiso       1.00
      C237          C  0.9642934  0.7513018  0.8766437    0.00000       Uiso       1.00
      C238          C  0.9426014  0.7309819  0.8614797    0.00000       Uiso       1.00
      C239          C  0.9216710  0.7296384  0.8453118    0.00000       Uiso       1.00
      C240          C  0.9233943  0.7483333  0.8430047    0.00000       Uiso       1.00
        O3          O  0.9580195  0.8033065  0.8758792    0.00000       Uiso       1.00
      H115          H  0.9797423  0.7838905  0.8888389    0.00000       Uiso       1.00
      H116          H  0.9814630  0.7537287  0.8891128    0.00000       Uiso       1.00
      H117          H  0.9023089  0.7132677  0.8355015    0.00000       Uiso       1.00
      C241          C  0.9203438  0.7823077  0.8444875    0.00000       Uiso       1.00
      C242          C  0.9016156  0.7644648  0.8267480    0.00000       Uiso       1.00
      C243          C  0.8808845  0.7629933  0.8105353    0.00000       Uiso       1.00
      C244          C  0.8633437  0.7455619  0.7923279    0.00000       Uiso       1.00
      C245          C  0.8676705  0.7300555  0.7890468    0.00000       Uiso       1.00
      C246          C  0.8893023  0.7322233  0.8052642    0.00000       Uiso       1.00
      C247          C  0.9043595  0.7479178  0.8251649    0.00000       Uiso       1.00
        O4          O  0.9209887  0.8000932  0.8482087    0.00000       Uiso       1.00
      H118          H  0.8782389  0.7753868  0.8121036    0.00000       Uiso       1.00
      H119          H  0.8467070  0.7446080  0.7808497    0.00000       Uiso       1.00
      H120          H  0.8961171  0.7226579  0.8016260    0.00000       Uiso       1.00
      C248          C  0.9378750  0.6555470  0.8619125    0.00000       Uiso       1.00
      C249          C  0.9377970  0.6733000  0.8627843    0.00000       Uiso       1.00
      C250          C  0.9526006  0.6895482  0.8820171    0.00000       Uiso       1.00
      C251          C  0.9533914  0.7077624  0.8821132    0.00000       Uiso       1.00
      C252          C  0.9411111  0.7110141  0.8622940    0.00000       Uiso       1.00
      C253          C  0.9270042  0.6947626  0.8428560    0.00000       Uiso       1.00
      C254          C  0.9227920  0.6748599  0.8435085    0.00000       Uiso       1.00
        O5          O  0.9519476  0.6518312  0.8790497    0.00000       Uiso       1.00
      H121          H  0.9634506  0.6879957  0.8970519    0.00000       Uiso       1.00
      H122          H  0.9639628  0.7192637  0.8977810    0.00000       Uiso       1.00
      H123          H  0.9210456  0.6983758  0.8264745    0.00000       Uiso       1.00
      C255          C  0.7935435  0.6380551  0.7176922    0.00000       Uiso       1.00
      C256          C  0.8104062  0.6371780  0.7355330    0.00000       Uiso       1.00
      C257          C  0.8074266  0.6179482  0.7369708    0.00000       Uiso       1.00
      C258          C  0.8255459  0.6178504  0.7543903    0.00000       Uiso       1.00
      C259          C  0.8486062  0.6376645  0.7699336    0.00000       Uiso       1.00
      C260          C  0.8517770  0.6570980  0.7678027    0.00000       Uiso       1.00
      C261          C  0.8312269  0.6564476  0.7521066    0.00000       Uiso       1.00
        O6          O  0.7727222  0.6209280  0.6998894    0.00000       Uiso       1.00
      H124          H  0.7908465  0.6029201  0.7245589    0.00000       Uiso       1.00
      H125          H  0.8213909  0.6021867  0.7553051    0.00000       Uiso       1.00
      H126          H  0.8717623  0.6734770  0.7773860    0.00000       Uiso       1.00
        B1          B  0.7634557  0.6316748  0.6866912    0.00000       Uiso       1.00
        B2          B  0.9451048  0.6318038  0.8683124    0.00000       Uiso       1.00
        B3          B  0.9449618  0.8133035  0.8682046    0.00000       Uiso       1.00
      C262          C  0.2029499  0.3428973  0.7158545    0.00000       Uiso       1.00
      C263          C  0.1840436  0.3241214  0.7326258    0.00000       Uiso       1.00
      C264          C  0.1814024  0.3050507  0.7311192    0.00000       Uiso       1.00
      C265          C  0.1637806  0.2870497  0.7487589    0.00000       Uiso       1.00
      C266          C  0.1499927  0.2884263  0.7690771    0.00000       Uiso       1.00
      C267          C  0.1534040  0.3080083  0.7704133    0.00000       Uiso       1.00
      C268          C  0.1680311  0.3249604  0.7517036    0.00000       Uiso       1.00
        O7          O  0.2212085  0.3452916  0.6967022    0.00000       Uiso       1.00
      H127          H  0.1930693  0.3041594  0.7161559    0.00000       Uiso       1.00
      H128          H  0.1615113  0.2723088  0.7463377    0.00000       Uiso       1.00
      H129          H  0.1465971  0.3110058  0.7867860    0.00000       Uiso       1.00
      C269          C  0.0758349  0.3600077  0.8428518    0.00000       Uiso       1.00
      C270          C  0.0924598  0.3598675  0.8240688    0.00000       Uiso       1.00
      C271          C  0.1073997  0.3763033  0.8050022    0.00000       Uiso       1.00
      C272          C  0.1254263  0.3766834  0.7870075    0.00000       Uiso       1.00
      C273          C  0.1305795  0.3615188  0.7883885    0.00000       Uiso       1.00
      C274          C  0.1157122  0.3453344  0.8079618    0.00000       Uiso       1.00
      C275          C  0.0946675  0.3430073  0.8249049    0.00000       Uiso       1.00
        O8          O  0.0725890  0.3758947  0.8452590    0.00000       Uiso       1.00
      H130          H  0.1050188  0.3888739  0.8041131    0.00000       Uiso       1.00
      H131          H  0.1354914  0.3891628  0.7722726    0.00000       Uiso       1.00
      H132          H  0.1222677  0.3355248  0.8109701    0.00000       Uiso       1.00
      C276          C  0.0587216  0.2158444  0.8600048    0.00000       Uiso       1.00
      C277          C  0.0566822  0.2325961  0.8598526    0.00000       Uiso       1.00
      C278          C  0.0360800  0.2310740  0.8762683    0.00000       Uiso       1.00
      C279          C  0.0356913  0.2487011  0.8766355    0.00000       Uiso       1.00
      C280          C  0.0573838  0.2690209  0.8614717    0.00000       Uiso       1.00
      C281          C  0.0783148  0.2703645  0.8453044    0.00000       Uiso       1.00
      C282          C  0.0765917  0.2516696  0.8429980    0.00000       Uiso       1.00
        O9          O  0.0419651  0.1966963  0.8758734    0.00000       Uiso       1.00
      H133          H  0.0202418  0.2161124  0.8888315    0.00000       Uiso       1.00
      H134          H  0.0185212  0.2462742  0.8891041    0.00000       Uiso       1.00
      H135          H  0.0976774  0.2867351  0.8354942    0.00000       Uiso       1.00
      C283          C  0.0796421  0.2176951  0.8444824    0.00000       Uiso       1.00
      C284          C  0.0983711  0.2355381  0.8267429    0.00000       Uiso       1.00
      C285          C  0.1191028  0.2370095  0.8105308    0.00000       Uiso       1.00
      C286          C  0.1366442  0.2544409  0.7923235    0.00000       Uiso       1.00
      C287          C  0.1323175  0.2699474  0.7890417    0.00000       Uiso       1.00
      C288          C  0.1106852  0.2677796  0.8052583    0.00000       Uiso       1.00
      C289          C  0.0956271  0.2520851  0.8251590    0.00000       Uiso       1.00
       O10          O  0.0789970  0.1999097  0.8482044    0.00000       Uiso       1.00
      H136          H  0.1217482  0.2246160  0.8120999    0.00000       Uiso       1.00
      H137          H  0.1532813  0.2553948  0.7808460    0.00000       Uiso       1.00
      H138          H  0.1038705  0.2773450  0.8016195    0.00000       Uiso       1.00
      C290          C  0.0621102  0.3444558  0.8619016    0.00000       Uiso       1.00
      C291          C  0.0621882  0.3267029  0.8627741    0.00000       Uiso       1.00
      C292          C  0.0473838  0.3104547  0.8820069    0.00000       Uiso       1.00
      C293          C  0.0465930  0.2922405  0.8821036    0.00000       Uiso       1.00
      C294          C  0.0588741  0.2889888  0.8622851    0.00000       Uiso       1.00
      C295          C  0.0729818  0.3052402  0.8428470    0.00000       Uiso       1.00
      C296          C  0.0771939  0.3251429  0.8434989    0.00000       Uiso       1.00
       O11          O  0.0480370  0.3481717  0.8790379    0.00000       Uiso       1.00
      H139          H  0.0365333  0.3120072  0.8970411    0.00000       Uiso       1.00
      H140          H  0.0360210  0.2807392  0.8977715    0.00000       Uiso       1.00
      H141          H  0.0789409  0.3016270  0.8264658    0.00000       Uiso       1.00
      C297          C  0.2064475  0.3619477  0.7176862    0.00000       Uiso       1.00
      C298          C  0.1895840  0.3628248  0.7355264    0.00000       Uiso       1.00
      C299          C  0.1925635  0.3820546  0.7369635    0.00000       Uiso       1.00
      C300          C  0.1744435  0.3821525  0.7543822    0.00000       Uiso       1.00
      C301          C  0.1513826  0.3623384  0.7699255    0.00000       Uiso       1.00
      C302          C  0.1482119  0.3429048  0.7677952    0.00000       Uiso       1.00
      C303          C  0.1687627  0.3435552  0.7520999    0.00000       Uiso       1.00
       O12          O  0.2272694  0.3790748  0.6998837    0.00000       Uiso       1.00
      H142          H  0.2091441  0.3970827  0.7245517    0.00000       Uiso       1.00
      H143          H  0.1785985  0.3978161  0.7552966    0.00000       Uiso       1.00
      H144          H  0.1282263  0.3265259  0.7773784    0.00000       Uiso       1.00
        B4          B  0.2365364  0.3683279  0.6866862    0.00000       Uiso       1.00
        B5          B  0.0548802  0.3681992  0.8683001    0.00000       Uiso       1.00
        B6          B  0.0550232  0.1866994  0.8681998    0.00000       Uiso       1.00
      C304          C  0.5171664  0.6571054  0.2841386    0.00000       Uiso       1.00
      C305          C  0.5358124  0.6758813  0.2673673    0.00000       Uiso       1.00
      C306          C  0.5713127  0.6949521  0.2688746    0.00000       Uiso       1.00
      C307          C  0.5896934  0.7129530  0.2512349    0.00000       Uiso       1.00
      C308          C  0.5731533  0.7115765  0.2309161    0.00000       Uiso       1.00
      C309          C  0.5374007  0.6919945  0.2295792    0.00000       Uiso       1.00
      C310          C  0.5181229  0.6750424  0.2482888    0.00000       Uiso       1.00
       O13          O  0.5306357  0.6547111  0.3032915    0.00000       Uiso       1.00
      H145          H  0.5847616  0.6958433  0.2838383    0.00000       Uiso       1.00
      H146          H  0.6169058  0.7276939  0.2536566    0.00000       Uiso       1.00
      H147          H  0.5245994  0.6889970  0.2132060    0.00000       Uiso       1.00
      C311          C  0.3558358  0.6399951  0.1571355    0.00000       Uiso       1.00
      C312          C  0.3727402  0.6401352  0.1759191    0.00000       Uiso       1.00
      C313          C  0.3548081  0.6236995  0.1949857    0.00000       Uiso       1.00
      C314          C  0.3720737  0.6233194  0.2129812    0.00000       Uiso       1.00
      C315          C  0.4075561  0.6384840  0.2116009    0.00000       Uiso       1.00
      C316          C  0.4250582  0.6546683  0.1920277    0.00000       Uiso       1.00
      C317          C  0.4086685  0.6569955  0.1750838    0.00000       Uiso       1.00
       O14          O  0.3208161  0.6241081  0.1547275    0.00000       Uiso       1.00
      H148          H  0.3272857  0.6111289  0.1958742    0.00000       Uiso       1.00
      H149          H  0.3571793  0.6108400  0.2277159    0.00000       Uiso       1.00
      H150          H  0.4512330  0.6644779  0.1890200    0.00000       Uiso       1.00
      C318          C  0.6270494  0.7841584  0.1399876    0.00000       Uiso       1.00
      C319          C  0.5915066  0.7674066  0.1401391    0.00000       Uiso       1.00
      C320          C  0.5739493  0.7689288  0.1237226    0.00000       Uiso       1.00
      C321          C  0.5383064  0.7513016  0.1233547    0.00000       Uiso       1.00
      C322          C  0.5193588  0.7309818  0.1385186    0.00000       Uiso       1.00
      C323          C  0.5376019  0.7296382  0.1546866    0.00000       Uiso       1.00
      C324          C  0.5732685  0.7483332  0.1569937    0.00000       Uiso       1.00
       O15          O  0.6485897  0.8033065  0.1241191    0.00000       Uiso       1.00
      H151          H  0.5880348  0.7838904  0.1111593    0.00000       Uiso       1.00
      H152          H  0.5259907  0.7537286  0.1108854    0.00000       Uiso       1.00
      H153          H  0.5242230  0.7132677  0.1644969    0.00000       Uiso       1.00
      C325          C  0.6442678  0.7823076  0.1555108    0.00000       Uiso       1.00
      C326          C  0.6273102  0.7644647  0.1732503    0.00000       Uiso       1.00
      C327          C  0.6450985  0.7629933  0.1894631    0.00000       Uiso       1.00
      C328          C  0.6277764  0.7455618  0.2076704    0.00000       Uiso       1.00
      C329          C  0.5924366  0.7300554  0.2109515    0.00000       Uiso       1.00
      C330          C  0.5751406  0.7322232  0.1947341    0.00000       Uiso       1.00
      C331          C  0.5914723  0.7479177  0.1748334    0.00000       Uiso       1.00
       O16          O  0.6791937  0.8000931  0.1517895    0.00000       Uiso       1.00
      H154          H  0.6725309  0.7753868  0.1878946    0.00000       Uiso       1.00
      H155          H  0.6425053  0.7446080  0.2191486    0.00000       Uiso       1.00
      H156          H  0.5491950  0.7226578  0.1983723    0.00000       Uiso       1.00
      C332          C  0.3732156  0.6555470  0.1380858    0.00000       Uiso       1.00
      C333          C  0.4087994  0.6732999  0.1372140    0.00000       Uiso       1.00
      C334          C  0.4264922  0.6895481  0.1179813    0.00000       Uiso       1.00
      C335          C  0.4621297  0.7077622  0.1178852    0.00000       Uiso       1.00
      C336          C  0.4809135  0.7110140  0.1377043    0.00000       Uiso       1.00
      C337          C  0.4625174  0.6947625  0.1571424    0.00000       Uiso       1.00
      C338          C  0.4269243  0.6748598  0.1564898    0.00000       Uiso       1.00
       O17          O  0.3517112  0.6518311  0.1209488    0.00000       Uiso       1.00
      H157          H  0.4125373  0.6879956  0.1029465    0.00000       Uiso       1.00
      H158          H  0.4745610  0.7192636  0.1022173    0.00000       Uiso       1.00
      H159          H  0.4757024  0.6983758  0.1735239    0.00000       Uiso       1.00
      C339          C  0.4825632  0.6380550  0.2823062    0.00000       Uiso       1.00
      C340          C  0.4639464  0.6371780  0.2644653    0.00000       Uiso       1.00
      C341          C  0.4284664  0.6179482  0.2630275    0.00000       Uiso       1.00
      C342          C  0.4101514  0.6178504  0.2456081    0.00000       Uiso       1.00
      C343          C  0.4267192  0.6376644  0.2300647    0.00000       Uiso       1.00
      C344          C  0.4624155  0.6570979  0.2321957    0.00000       Uiso       1.00
      C345          C  0.4816647  0.6564475  0.2478917    0.00000       Uiso       1.00
       O18          O  0.4691304  0.6209280  0.3001089    0.00000       Uiso       1.00
      H160          H  0.4149904  0.6029201  0.2754395    0.00000       Uiso       1.00
      H161          H  0.3829791  0.6021867  0.2446933    0.00000       Uiso       1.00
      H162          H  0.4751881  0.6734769  0.2226123    0.00000       Uiso       1.00
        B7          B  0.4998906  0.6316748  0.3133072    0.00000       Uiso       1.00
        B8          B  0.3184992  0.6318036  0.1316861    0.00000       Uiso       1.00
        B9          B  0.6816412  0.8133034  0.1317936    0.00000       Uiso       1.00
      C346          C  0.4828420  0.3428973  0.2841444    0.00000       Uiso       1.00
      C347          C  0.4641966  0.3241214  0.2673731    0.00000       Uiso       1.00
      C348          C  0.4286963  0.3050507  0.2688797    0.00000       Uiso       1.00
      C349          C  0.4103163  0.2870497  0.2512400    0.00000       Uiso       1.00
      C350          C  0.4268573  0.2884263  0.2309218    0.00000       Uiso       1.00
      C351          C  0.4626098  0.3080082  0.2295856    0.00000       Uiso       1.00
      C352          C  0.4818869  0.3249604  0.2482952    0.00000       Uiso       1.00
       O19          O  0.4693720  0.3452916  0.3032967    0.00000       Uiso       1.00
      H163          H  0.4152468  0.3041594  0.2838430    0.00000       Uiso       1.00
      H164          H  0.3831038  0.2723088  0.2536612    0.00000       Uiso       1.00
      H165          H  0.4754118  0.3110057  0.2132128    0.00000       Uiso       1.00
      C353          C  0.6441777  0.3600076  0.1571470    0.00000       Uiso       1.00
      C354          C  0.6272724  0.3598675  0.1759300    0.00000       Uiso       1.00
      C355          C  0.6452038  0.3763031  0.1949967    0.00000       Uiso       1.00
      C356          C  0.6279376  0.3766833  0.2129914    0.00000       Uiso       1.00
      C357          C  0.5924552  0.3615187  0.2116103    0.00000       Uiso       1.00
      C358          C  0.5749539  0.3453344  0.1920371    0.00000       Uiso       1.00
      C359          C  0.5913442  0.3430071  0.1750939    0.00000       Uiso       1.00
       O20          O  0.6791974  0.3758945  0.1547398    0.00000       Uiso       1.00
      H166          H  0.6727261  0.3888738  0.1958858    0.00000       Uiso       1.00
      H167          H  0.6428313  0.3891627  0.2277262    0.00000       Uiso       1.00
      H168          H  0.5487791  0.3355247  0.1890288    0.00000       Uiso       1.00
      C360          C  0.3729647  0.2158443  0.1399941    0.00000       Uiso       1.00
      C361          C  0.4085074  0.2325960  0.1401464    0.00000       Uiso       1.00
      C362          C  0.4260654  0.2310739  0.1237306    0.00000       Uiso       1.00
      C363          C  0.4617084  0.2487010  0.1233634    0.00000       Uiso       1.00
      C364          C  0.4806554  0.2690208  0.1385273    0.00000       Uiso       1.00
      C365          C  0.4624116  0.2703644  0.1546945    0.00000       Uiso       1.00
      C366          C  0.4267449  0.2516695  0.1570009    0.00000       Uiso       1.00
       O21          O  0.3514251  0.1966962  0.1241256    0.00000       Uiso       1.00
      H169          H  0.4119804  0.2161122  0.1111674    0.00000       Uiso       1.00
      H170          H  0.4740246  0.2462740  0.1108948    0.00000       Uiso       1.00
      H171          H  0.4757902  0.2867350  0.1645047    0.00000       Uiso       1.00
      C367          C  0.3557457  0.2176950  0.1555166    0.00000       Uiso       1.00
      C368          C  0.3727025  0.2355380  0.1732561    0.00000       Uiso       1.00
      C369          C  0.3549137  0.2370094  0.1894681    0.00000       Uiso       1.00
      C370          C  0.3722350  0.2544408  0.2076754    0.00000       Uiso       1.00
      C371          C  0.4075747  0.2699473  0.2109572    0.00000       Uiso       1.00
      C372          C  0.4248713  0.2677795  0.1947406    0.00000       Uiso       1.00
      C373          C  0.4085404  0.2520850  0.1748399    0.00000       Uiso       1.00
       O22          O  0.3208199  0.1999096  0.1517946    0.00000       Uiso       1.00
      H172          H  0.3274812  0.2246159  0.1878990    0.00000       Uiso       1.00
      H173          H  0.3575056  0.2553947  0.2191529    0.00000       Uiso       1.00
      H174          H  0.4508168  0.2773449  0.1983794    0.00000       Uiso       1.00
      C374          C  0.6267985  0.3444557  0.1380973    0.00000       Uiso       1.00
      C375          C  0.5912148  0.3267028  0.1372248    0.00000       Uiso       1.00
      C376          C  0.5735227  0.3104545  0.1179920    0.00000       Uiso       1.00
      C377          C  0.5378852  0.2922404  0.1178952    0.00000       Uiso       1.00
      C378          C  0.5191007  0.2889886  0.1377137    0.00000       Uiso       1.00
      C379          C  0.5374960  0.3052402  0.1571519    0.00000       Uiso       1.00
      C380          C  0.5730891  0.3251428  0.1565000    0.00000       Uiso       1.00
       O23          O  0.6483036  0.3481716  0.1209610    0.00000       Uiso       1.00
      H175          H  0.5874783  0.3120070  0.1029577    0.00000       Uiso       1.00
      H176          H  0.5254546  0.2807390  0.1022274    0.00000       Uiso       1.00
      H177          H  0.5243103  0.3016269  0.1735330    0.00000       Uiso       1.00
      C381          C  0.5174452  0.3619477  0.2823126    0.00000       Uiso       1.00
      C382          C  0.5360628  0.3628247  0.2644724    0.00000       Uiso       1.00
      C383          C  0.5715428  0.3820545  0.2630353    0.00000       Uiso       1.00
      C384          C  0.5898585  0.3821524  0.2456166    0.00000       Uiso       1.00
      C385          C  0.5732912  0.3623383  0.2300733    0.00000       Uiso       1.00
      C386          C  0.5375950  0.3429048  0.2322036    0.00000       Uiso       1.00
      C387          C  0.5183451  0.3435552  0.2478989    0.00000       Uiso       1.00
       O24          O  0.5308774  0.3790748  0.3001152    0.00000       Uiso       1.00
      H178          H  0.5850183  0.3970826  0.2754471    0.00000       Uiso       1.00
      H179          H  0.6170308  0.3978160  0.2447022    0.00000       Uiso       1.00
      H180          H  0.5248227  0.3265258  0.2226204    0.00000       Uiso       1.00
       B10          B  0.5001166  0.3683279  0.3133127    0.00000       Uiso       1.00
       B11          B  0.6815152  0.3681991  0.1316988    0.00000       Uiso       1.00
       B12          B  0.3183732  0.1866993  0.1317992    0.00000       Uiso       1.00
