data_71
_audit_creation_date              0000-00-00
_audit_creation_method            'LanYouShi'
_symmetry_space_group_name_H-M    'P1'
_cell_length_a                    68.1961975
_cell_length_b                    68.1961975
_cell_length_c                    68.1961975
_cell_angle_alpha                 119.9993973
_cell_angle_beta                  119.9993973
_cell_angle_gamma                 60.0000000
loop_
_atom_site_label
_atom_site_type_symbol
_atom_site_fract_x
_atom_site_fract_y
_atom_site_fract_z
_atom_site_U_iso_or_equiv
_atom_site_adp_type
_atom_site_occupancy
        C1          C  0.4047262  0.4047263  0.5424640    0.00000       Uiso       1.00
        C2          C  0.3924139  0.4277459  0.5407000    0.00000       Uiso       1.00
        C3          C  0.4029075  0.4383126  0.5369291    0.00000       Uiso       1.00
        C4          C  0.4277458  0.3924140  0.5407001    0.00000       Uiso       1.00
        C5          C  0.4382895  0.4028254  0.5368251    0.00000       Uiso       1.00
        C6          C  0.4260103  0.4259563  0.5348136    0.00000       Uiso       1.00
        H1          H  0.6864694  0.4647864  0.6072485    0.00000       Uiso       1.00
        H2          H  0.4380686  0.3736483  0.5421588    0.00000       Uiso       1.00
        C7          C  0.4575344  0.7330088  0.5952723    0.00000       Uiso       1.00
        C8          C  0.4592983  0.7205374  0.6075845    0.00000       Uiso       1.00
        C9          C  0.4631732  0.6957076  0.5971732    0.00000       Uiso       1.00
       C10          C  0.4592986  0.7205377  0.5722529    0.00000       Uiso       1.00
       C11          C  0.4630691  0.6957068  0.5616862    0.00000       Uiso       1.00
       C12          C  0.4651844  0.6828448  0.5740423    0.00000       Uiso       1.00
        H3          H  0.3927485  0.4559887  0.5352100    0.00000       Uiso       1.00
        H4          H  0.4578393  0.7304389  0.6263500    0.00000       Uiso       1.00
       C13          C  0.7330084  0.4575346  0.5952722    0.00000       Uiso       1.00
       C14          C  0.7205372  0.4592987  0.5722528    0.00000       Uiso       1.00
       C15          C  0.6957073  0.4631745  0.5617095    0.00000       Uiso       1.00
       C16          C  0.7205369  0.4592984  0.6075844    0.00000       Uiso       1.00
       C17          C  0.6957060  0.4630685  0.5970905    0.00000       Uiso       1.00
       C18          C  0.6828444  0.4651850  0.5739883    0.00000       Uiso       1.00
        H5          H  0.4559917  0.3927522  0.3135310    0.00000       Uiso       1.00
        H6          H  0.7304391  0.4578401  0.5619301    0.00000       Uiso       1.00
       C19          C  0.4047287  0.4047288  0.2669925    0.00000       Uiso       1.00
       C20          C  0.4277483  0.3924164  0.2794637    0.00000       Uiso       1.00
       C21          C  0.4383151  0.4029105  0.3042946    0.00000       Uiso       1.00
       C22          C  0.3924164  0.4277483  0.2794637    0.00000       Uiso       1.00
       C23          C  0.4028274  0.4382918  0.3042934    0.00000       Uiso       1.00
       C24          C  0.4259583  0.4260129  0.3171562    0.00000       Uiso       1.00
        H7          H  0.4647883  0.6864706  0.5440102    0.00000       Uiso       1.00
       C25          C  0.5000006  0.4999994  0.5000004    0.00000       Uiso       1.00
        H8          H  0.3736508  0.4380712  0.2695621    0.00000       Uiso       1.00
        F1          F  0.3678868  0.4412380  0.5426067    0.00000       Uiso       1.00
        F2          F  0.4412404  0.3678895  0.2665222    0.00000       Uiso       1.00
        F3          F  0.7334784  0.4573916  0.6321112    0.00000       Uiso       1.00
        F4          F  0.4573921  0.7334795  0.5587609    0.00000       Uiso       1.00
        F5          F  0.3890896  0.4629349  0.3167910    0.00000       Uiso       1.00
        F6          F  0.4629329  0.3890879  0.5352337    0.00000       Uiso       1.00
        F7          F  0.4647647  0.6832101  0.6109107    0.00000       Uiso       1.00
        F8          F  0.6832094  0.4647675  0.5370668    0.00000       Uiso       1.00
       C26          C  0.4371500  0.4369824  0.5303618    0.00000       Uiso       1.00
       C27          C  0.4344008  0.4616052  0.5416691    0.00000       Uiso       1.00
       C28          C  0.4447652  0.4718851  0.5374154    0.00000       Uiso       1.00
       C29          C  0.4506165  0.4229761  0.5146712    0.00000       Uiso       1.00
       C30          C  0.4609608  0.4332510  0.5103979    0.00000       Uiso       1.00
       C31          C  0.4582215  0.4578858  0.5216992    0.00000       Uiso       1.00
        H9          H  0.6134275  0.4532148  0.5574370    0.00000       Uiso       1.00
       H10          H  0.4527608  0.4040871  0.5052753    0.00000       Uiso       1.00
       C32          C  0.4696358  0.6562276  0.5630161    0.00000       Uiso       1.00
       C33          C  0.4853286  0.6410761  0.5770214    0.00000       Uiso       1.00
       C34          C  0.4896030  0.6161837  0.5667468    0.00000       Uiso       1.00
       C35          C  0.4583268  0.6456621  0.5383938    0.00000       Uiso       1.00
       C36          C  0.4625812  0.6207641  0.5281143    0.00000       Uiso       1.00
       C37          C  0.4782996  0.6055905  0.5421126    0.00000       Uiso       1.00
       H11          H  0.4425394  0.4907972  0.5467618    0.00000       Uiso       1.00
       H12          H  0.4947267  0.6484247  0.5959097    0.00000       Uiso       1.00
       C38          C  0.6562274  0.4696365  0.5628486    0.00000       Uiso       1.00
       C39          C  0.6410753  0.4853359  0.5493916    0.00000       Uiso       1.00
       C40          C  0.6161829  0.4896084  0.5390473    0.00000       Uiso       1.00
       C41          C  0.6456628  0.4583193  0.5655874    0.00000       Uiso       1.00
       C42          C  0.6207654  0.4625708  0.5552213    0.00000       Uiso       1.00
       C43          C  0.6055912  0.4782961  0.5417749    0.00000       Uiso       1.00
       H13          H  0.4907945  0.4425605  0.3865723    0.00000       Uiso       1.00
       H14          H  0.6484234  0.4947384  0.5472552    0.00000       Uiso       1.00
       C44          C  0.4369837  0.4371532  0.3437732    0.00000       Uiso       1.00
       C45          C  0.4616046  0.4344125  0.3543383    0.00000       Uiso       1.00
       C46          C  0.4718842  0.4447791  0.3792354    0.00000       Uiso       1.00
       C47          C  0.4229785  0.4506132  0.3589246    0.00000       Uiso       1.00
       C48          C  0.4332537  0.4609585  0.3838167    0.00000       Uiso       1.00
       C49          C  0.4578859  0.4582289  0.3944093    0.00000       Uiso       1.00
       H15          H  0.4532351  0.6134228  0.5092028    0.00000       Uiso       1.00
       H16          H  0.4040909  0.4527521  0.3515765    0.00000       Uiso       1.00
        F9          F  0.4208336  0.4771399  0.5588917    0.00000       Uiso       1.00
       F10          F  0.4771372  0.4208531  0.3390820    0.00000       Uiso       1.00
       F11          F  0.6609203  0.4410872  0.5791439    0.00000       Uiso       1.00
       F12          F  0.4411028  0.6609179  0.5228601    0.00000       Uiso       1.00
       F13          F  0.4177105  0.4743658  0.3990445    0.00000       Uiso       1.00
       F14          F  0.4743725  0.4177036  0.4930380    0.00000       Uiso       1.00
       F15          F  0.5069686  0.6009593  0.5822932    0.00000       Uiso       1.00
       F16          F  0.6009542  0.5069770  0.5256456    0.00000       Uiso       1.00
       C50          C  0.4691832  0.4689125  0.5170013    0.00000       Uiso       1.00
       C51          C  0.4570189  0.4921236  0.5153009    0.00000       Uiso       1.00
       C52          C  0.4670168  0.5022410  0.5104334    0.00000       Uiso       1.00
       C53          C  0.4916384  0.4561267  0.5135384    0.00000       Uiso       1.00
       C54          C  0.5016172  0.4662411  0.5086561    0.00000       Uiso       1.00
       C55          C  0.4899585  0.4898770  0.5078187    0.00000       Uiso       1.00
       H17          H  0.5320799  0.4917859  0.5435447    0.00000       Uiso       1.00
       H18          H  0.5015708  0.4381818  0.5145801    0.00000       Uiso       1.00
       C56          C  0.4829971  0.5789045  0.5310852    0.00000       Uiso       1.00
       C57          C  0.4864605  0.5657728  0.5438715    0.00000       Uiso       1.00
       C58          C  0.4913448  0.5407965  0.5337585    0.00000       Uiso       1.00
       C59          C  0.4846973  0.5661577  0.5078744    0.00000       Uiso       1.00
       C60          C  0.4895666  0.5411747  0.4977587    0.00000       Uiso       1.00
       C61          C  0.4921830  0.5279818  0.5101231    0.00000       Uiso       1.00
       H19          H  0.4564512  0.5196766  0.5082062    0.00000       Uiso       1.00
       H20          H  0.4854196  0.5748301  0.5618168    0.00000       Uiso       1.00
       C62          C  0.5789055  0.4829942  0.5308127    0.00000       Uiso       1.00
       C63          C  0.5657736  0.4864593  0.5083590    0.00000       Uiso       1.00
       C64          C  0.5407980  0.4913436  0.4983816    0.00000       Uiso       1.00
       C65          C  0.5661591  0.4846944  0.5429771    0.00000       Uiso       1.00
       C66          C  0.5411767  0.4895624  0.5329804    0.00000       Uiso       1.00
       C67          C  0.5279841  0.4921792  0.5100403    0.00000       Uiso       1.00
       H21          H  0.5196779  0.4564589  0.4679219    0.00000       Uiso       1.00
       H22          H  0.5748278  0.4854174  0.4984265    0.00000       Uiso       1.00
       C68          C  0.4689108  0.4691909  0.4210954    0.00000       Uiso       1.00
       C69          C  0.4921229  0.4570271  0.4338408    0.00000       Uiso       1.00
       C70          C  0.5022405  0.4670220  0.4588237    0.00000       Uiso       1.00
       C71          C  0.4561222  0.4916427  0.4342295    0.00000       Uiso       1.00
       C72          C  0.4662369  0.5016177  0.4592055    0.00000       Uiso       1.00
       C73          C  0.4898751  0.4899599  0.4720183    0.00000       Uiso       1.00
       H23          H  0.4917971  0.5320745  0.4803244    0.00000       Uiso       1.00
       H24          H  0.4381757  0.5015758  0.4251781    0.00000       Uiso       1.00
       F17          F  0.4326509  0.5060249  0.5175812    0.00000       Uiso       1.00
       F18          F  0.5060256  0.4326640  0.4210883    0.00000       Uiso       1.00
       F19          F  0.5789098  0.4824095  0.5673432    0.00000       Uiso       1.00
       F20          F  0.4824200  0.5789037  0.4939739    0.00000       Uiso       1.00
       F21          F  0.4512542  0.5248557  0.4721696    0.00000       Uiso       1.00
       F22          F  0.5248618  0.4512622  0.5039600    0.00000       Uiso       1.00
       F23          F  0.4960494  0.5278313  0.5487382    0.00000       Uiso       1.00
       F24          F  0.5278379  0.4960433  0.4751392    0.00000       Uiso       1.00
       C74          C  0.0347162  0.4047287  0.2669924    0.00000       Uiso       1.00
       C75          C  0.0364801  0.4277482  0.2794636    0.00000       Uiso       1.00
       C76          C  0.0402508  0.4383146  0.3042945    0.00000       Uiso       1.00
       C77          C  0.0364800  0.3924163  0.2794636    0.00000       Uiso       1.00
       C78          C  0.0403548  0.4028275  0.3042934    0.00000       Uiso       1.00
       C79          C  0.0423662  0.4259582  0.3171563    0.00000       Uiso       1.00
       H25          H  0.9699287  0.4647869  0.5440093    0.00000       Uiso       1.00
       H26          H  0.0350214  0.3736508  0.2695620    0.00000       Uiso       1.00
       C80          C  0.9819046  0.7330088  0.5952723    0.00000       Uiso       1.00
       C81          C  0.9695925  0.7205377  0.5722529    0.00000       Uiso       1.00
       C82          C  0.9800040  0.6957079  0.5617092    0.00000       Uiso       1.00
       C83          C  0.0049239  0.7205374  0.6075845    0.00000       Uiso       1.00
       C84          C  0.0154908  0.6957064  0.5970908    0.00000       Uiso       1.00
       C85          C  0.0031347  0.6828448  0.5739883    0.00000       Uiso       1.00
       H27          H  0.0419699  0.4559906  0.3135307    0.00000       Uiso       1.00
       H28          H  0.9508269  0.7304394  0.5619302    0.00000       Uiso       1.00
       C86          C  0.9819047  0.4575346  0.5952722    0.00000       Uiso       1.00
       C87          C  0.0049240  0.4592984  0.6075844    0.00000       Uiso       1.00
       C88          C  0.0154675  0.4631742  0.5971734    0.00000       Uiso       1.00
       C89          C  0.9695926  0.4592987  0.5722528    0.00000       Uiso       1.00
       C90          C  0.9800867  0.4630688  0.5616859    0.00000       Uiso       1.00
       C91          C  0.0031887  0.4651850  0.5740425    0.00000       Uiso       1.00
       H29          H  0.2636489  0.3927502  0.5352125    0.00000       Uiso       1.00
       H30          H  0.0152466  0.4578395  0.6263499    0.00000       Uiso       1.00
       C92          C  0.3101877  0.4047263  0.5424640    0.00000       Uiso       1.00
       C93          C  0.2977164  0.3924140  0.5407000    0.00000       Uiso       1.00
       C94          C  0.2728853  0.4029084  0.5369303    0.00000       Uiso       1.00
       C95          C  0.2977164  0.4277459  0.5407000    0.00000       Uiso       1.00
       C96          C  0.2728865  0.4382897  0.5368251    0.00000       Uiso       1.00
       C97          C  0.2600236  0.4260109  0.5348145    0.00000       Uiso       1.00
       H31          H  0.0331669  0.6864700  0.6072496    0.00000       Uiso       1.00
       C98          C  0.0771780  0.4999994  0.5000011    0.00000       Uiso       1.00
       H32          H  0.3076181  0.4380687  0.5421588    0.00000       Uiso       1.00
       F25          F  0.0345736  0.4412404  0.2665220    0.00000       Uiso       1.00
       F26          F  0.3106580  0.3678870  0.5426067    0.00000       Uiso       1.00
       F27          F  0.9450657  0.4573922  0.5587609    0.00000       Uiso       1.00
       F28          F  0.0184157  0.7334788  0.6321113    0.00000       Uiso       1.00
       F29          F  0.2603888  0.4629329  0.5352329    0.00000       Uiso       1.00
       F30          F  0.0419461  0.3890899  0.3167906    0.00000       Uiso       1.00
       F31          F  0.9662666  0.6832107  0.5370662    0.00000       Uiso       1.00
       F32          F  0.0401103  0.4647669  0.6109110    0.00000       Uiso       1.00
       C99          C  0.0468178  0.4369840  0.3437737    0.00000       Uiso       1.00
      C100          C  0.0355103  0.4616069  0.3543401    0.00000       Uiso       1.00
      C101          C  0.0397637  0.4718864  0.3792377    0.00000       Uiso       1.00
      C102          C  0.0625084  0.4229775  0.3589243    0.00000       Uiso       1.00
      C103          C  0.0667816  0.4332521  0.3838165    0.00000       Uiso       1.00
      C104          C  0.0554800  0.4578869  0.3944107    0.00000       Uiso       1.00
       H33          H  0.0197408  0.4532152  0.5092071    0.00000       Uiso       1.00
       H34          H  0.0719045  0.4040884  0.3515753    0.00000       Uiso       1.00
      C105          C  0.0141612  0.6562276  0.5628487    0.00000       Uiso       1.00
      C106          C  0.0001558  0.6410763  0.5493849    0.00000       Uiso       1.00
      C107          C  0.0104307  0.6161839  0.5390415    0.00000       Uiso       1.00
      C108          C  0.0387837  0.6456618  0.5655962    0.00000       Uiso       1.00
      C109          C  0.0490634  0.6207638  0.5552322    0.00000       Uiso       1.00
      C110          C  0.0350650  0.6055905  0.5417789    0.00000       Uiso       1.00
       H35          H  0.0304172  0.4907986  0.3865776    0.00000       Uiso       1.00
       H36          H  0.9812675  0.6484252  0.5472435    0.00000       Uiso       1.00
      C111          C  0.0143288  0.4696365  0.5630167    0.00000       Uiso       1.00
      C112          C  0.0277856  0.4853356  0.5770207    0.00000       Uiso       1.00
      C113          C  0.0381301  0.4896081  0.5667452    0.00000       Uiso       1.00
      C114          C  0.0115901  0.4583196  0.5383964    0.00000       Uiso       1.00
      C115          C  0.0219563  0.4625711  0.5281166    0.00000       Uiso       1.00
      C116          C  0.0354027  0.4782960  0.5421138    0.00000       Uiso       1.00
       H37          H  0.1906067  0.4425590  0.5467826    0.00000       Uiso       1.00
       H38          H  0.0299220  0.4947379  0.5959077    0.00000       Uiso       1.00
      C117          C  0.2334063  0.4371515  0.5303634    0.00000       Uiso       1.00
      C118          C  0.2228411  0.4344108  0.5416785    0.00000       Uiso       1.00
      C119          C  0.1979438  0.4447777  0.5374279    0.00000       Uiso       1.00
      C120          C  0.2182550  0.4506118  0.5146672    0.00000       Uiso       1.00
      C121          C  0.1933628  0.4609574  0.5103958    0.00000       Uiso       1.00
      C122          C  0.1827700  0.4582277  0.5217057    0.00000       Uiso       1.00
       H39          H  0.0679750  0.6134223  0.5574560    0.00000       Uiso       1.00
       H40          H  0.2256032  0.4527507  0.5052665    0.00000       Uiso       1.00
       F33          F  0.0182876  0.4771418  0.3390852    0.00000       Uiso       1.00
       F34          F  0.2380974  0.4208511  0.5589078    0.00000       Uiso       1.00
       F35          F  0.9980339  0.4410877  0.5228655    0.00000       Uiso       1.00
       F36          F  0.0543174  0.6609174  0.5791615    0.00000       Uiso       1.00
       F37          F  0.1781349  0.4743649  0.4930323    0.00000       Uiso       1.00
       F38          F  0.0841414  0.4177044  0.3990404    0.00000       Uiso       1.00
       F39          F  0.9948844  0.6009598  0.5256366    0.00000       Uiso       1.00
       F40          F  0.0515319  0.5069765  0.5822865    0.00000       Uiso       1.00
      C123          C  0.0601777  0.4689134  0.4210968    0.00000       Uiso       1.00
      C124          C  0.0618780  0.4921243  0.4338438    0.00000       Uiso       1.00
      C125          C  0.0667453  0.5022414  0.4588262    0.00000       Uiso       1.00
      C126          C  0.0636405  0.4561273  0.4342287    0.00000       Uiso       1.00
      C127          C  0.0685226  0.4662415  0.4592040    0.00000       Uiso       1.00
      C128          C  0.0693599  0.4898773  0.4720186    0.00000       Uiso       1.00
       H41          H  0.0336335  0.4917865  0.4803232    0.00000       Uiso       1.00
       H42          H  0.0625989  0.4381826  0.4251747    0.00000       Uiso       1.00
      C129          C  0.0460926  0.5789044  0.5308177    0.00000       Uiso       1.00
      C130          C  0.0333064  0.5657731  0.5083635    0.00000       Uiso       1.00
      C131          C  0.0434196  0.5407968  0.4983846    0.00000       Uiso       1.00
      C132          C  0.0693036  0.5661573  0.5429816    0.00000       Uiso       1.00
      C133          C  0.0794195  0.5411743  0.5329837    0.00000       Uiso       1.00
      C134          C  0.0670551  0.5279818  0.5100431    0.00000       Uiso       1.00
       H43          H  0.0689725  0.5196770  0.4679235    0.00000       Uiso       1.00
       H44          H  0.0153611  0.5748306  0.4984349    0.00000       Uiso       1.00
      C135          C  0.0463651  0.4829942  0.5310884    0.00000       Uiso       1.00
      C136          C  0.0688189  0.4864590  0.5438750    0.00000       Uiso       1.00
      C137          C  0.0787965  0.4913432  0.5337610    0.00000       Uiso       1.00
      C138          C  0.0342009  0.4846947  0.5078782    0.00000       Uiso       1.00
      C139          C  0.0441977  0.4895627  0.4977604    0.00000       Uiso       1.00
      C140          C  0.0671380  0.4921792  0.5101245    0.00000       Uiso       1.00
       H45          H  0.1092567  0.4564585  0.5082160    0.00000       Uiso       1.00
       H46          H  0.0787514  0.4854168  0.5618196    0.00000       Uiso       1.00
      C141          C  0.1560836  0.4691900  0.5170069    0.00000       Uiso       1.00
      C142          C  0.1433381  0.4570264  0.5153099    0.00000       Uiso       1.00
      C143          C  0.1183550  0.4670215  0.5104397    0.00000       Uiso       1.00
      C144          C  0.1429495  0.4916420  0.5135362    0.00000       Uiso       1.00
      C145          C  0.1179733  0.5016173  0.5086502    0.00000       Uiso       1.00
      C146          C  0.1051603  0.4899596  0.5078178    0.00000       Uiso       1.00
       H47          H  0.0968539  0.5320739  0.5435481    0.00000       Uiso       1.00
       H48          H  0.1520008  0.5015750  0.5145739    0.00000       Uiso       1.00
       F41          F  0.0595978  0.5060257  0.4210968    0.00000       Uiso       1.00
       F42          F  0.1560907  0.4326631  0.5176018    0.00000       Uiso       1.00
       F43          F  0.0098347  0.4824101  0.4939783    0.00000       Uiso       1.00
       F44          F  0.0832040  0.5789031  0.5673507    0.00000       Uiso       1.00
       F45          F  0.1050090  0.5248554  0.5039414    0.00000       Uiso       1.00
       F46          F  0.0732187  0.4512625  0.4721657    0.00000       Uiso       1.00
       F47          F  0.0284400  0.5278319  0.4751445    0.00000       Uiso       1.00
       F48          F  0.1020390  0.4960426  0.5487428    0.00000       Uiso       1.00
      C147          C  0.3101828  0.4047213  0.1724465    0.00000       Uiso       1.00
      C148          C  0.2977113  0.4277408  0.1847586    0.00000       Uiso       1.00
      C149          C  0.2728803  0.4383075  0.1742652    0.00000       Uiso       1.00
      C150          C  0.2977117  0.3924092  0.1494271    0.00000       Uiso       1.00
      C151          C  0.2728818  0.4028206  0.1388835    0.00000       Uiso       1.00
      C152          C  0.2600186  0.4259514  0.1511627    0.00000       Uiso       1.00
       H49          H  0.0331651  0.4647838  0.8907046    0.00000       Uiso       1.00
       H50          H  0.3076134  0.3736436  0.1391044    0.00000       Uiso       1.00
      C153          C  0.9819005  0.7330047  0.1196382    0.00000       Uiso       1.00
      C154          C  0.0049200  0.7205335  0.1178743    0.00000       Uiso       1.00
      C155          C  0.0154638  0.6957035  0.1139995    0.00000       Uiso       1.00
      C156          C  0.9695882  0.7205335  0.1178743    0.00000       Uiso       1.00
      C157          C  0.9800821  0.6957025  0.1141038    0.00000       Uiso       1.00
      C158          C  0.0031846  0.6828407  0.1119884    0.00000       Uiso       1.00
       H51          H  0.2636440  0.4559835  0.1844241    0.00000       Uiso       1.00
       H52          H  0.0152427  0.7304351  0.1193330    0.00000       Uiso       1.00
      C159          C  0.9819024  0.4575323  0.8441662    0.00000       Uiso       1.00
      C160          C  0.9695900  0.4592962  0.8566374    0.00000       Uiso       1.00
      C161          C  0.9800009  0.4631716  0.8814673    0.00000       Uiso       1.00
      C162          C  0.0049217  0.4592962  0.8566374    0.00000       Uiso       1.00
      C163          C  0.0154885  0.4630660  0.8814682    0.00000       Uiso       1.00
      C164          C  0.0031316  0.4651821  0.8943300    0.00000       Uiso       1.00
       H53          H  0.0419607  0.3927456  0.1211835    0.00000       Uiso       1.00
       H54          H  0.9508244  0.4578376  0.8467359    0.00000       Uiso       1.00
      C165          C  0.0347087  0.4047213  0.1724465    0.00000       Uiso       1.00
      C166          C  0.0364728  0.3924092  0.1494270    0.00000       Uiso       1.00
      C167          C  0.0402427  0.4029037  0.1388601    0.00000       Uiso       1.00
      C168          C  0.0364725  0.4277409  0.1847586    0.00000       Uiso       1.00
      C169          C  0.0403476  0.4382847  0.1743475    0.00000       Uiso       1.00
      C170          C  0.0423584  0.4260061  0.1512166    0.00000       Uiso       1.00
       H55          H  0.9699231  0.6864662  0.1123849    0.00000       Uiso       1.00
      C171          C  0.0771729  0.4999949  0.0771733    0.00000       Uiso       1.00
       H56          H  0.0350136  0.4380634  0.2035241    0.00000       Uiso       1.00
       F49          F  0.3106528  0.4412326  0.2092855    0.00000       Uiso       1.00
       F50          F  0.0345664  0.3678823  0.1359351    0.00000       Uiso       1.00
       F51          F  0.0184139  0.4573897  0.8436959    0.00000       Uiso       1.00
       F52          F  0.9450611  0.7334751  0.1197809    0.00000       Uiso       1.00
       F53          F  0.0419396  0.4629277  0.1880850    0.00000       Uiso       1.00
       F54          F  0.2603847  0.3890834  0.1142403    0.00000       Uiso       1.00
       F55          F  0.0401071  0.6832062  0.1124078    0.00000       Uiso       1.00
       F56          F  0.9662631  0.4647644  0.8939654    0.00000       Uiso       1.00
      C172          C  0.2334011  0.4369775  0.1400231    0.00000       Uiso       1.00
      C173          C  0.2228346  0.4616005  0.1427722    0.00000       Uiso       1.00
      C174          C  0.1979368  0.4718803  0.1324078    0.00000       Uiso       1.00
      C175          C  0.2182505  0.4229713  0.1265568    0.00000       Uiso       1.00
      C176          C  0.1933581  0.4332462  0.1162127    0.00000       Uiso       1.00
      C177          C  0.1827638  0.4578811  0.1189518    0.00000       Uiso       1.00
       H57          H  0.0679670  0.4532112  0.9637464    0.00000       Uiso       1.00
       H58          H  0.2255995  0.4040821  0.1244127    0.00000       Uiso       1.00
      C178          C  0.0143243  0.6562234  0.1075372    0.00000       Uiso       1.00
      C179          C  0.0277884  0.6410721  0.0918444    0.00000       Uiso       1.00
      C180          C  0.0381319  0.6161796  0.0875702    0.00000       Uiso       1.00
      C181          C  0.0115767  0.6456575  0.1188464    0.00000       Uiso       1.00
      C182          C  0.0219409  0.6207595  0.1145921    0.00000       Uiso       1.00
      C183          C  0.0353944  0.6055862  0.0988737    0.00000       Uiso       1.00
       H59          H  0.1905968  0.4907925  0.1346335    0.00000       Uiso       1.00
       H60          H  0.0299299  0.6484210  0.0824463    0.00000       Uiso       1.00
      C184          C  0.0141573  0.4696333  0.9209469    0.00000       Uiso       1.00
      C185          C  0.0001530  0.4853324  0.9360989    0.00000       Uiso       1.00
      C186          C  0.0104284  0.4896046  0.9609911    0.00000       Uiso       1.00
      C187          C  0.0387777  0.4583161  0.9315113    0.00000       Uiso       1.00
      C188          C  0.0490574  0.4625673  0.9564086    0.00000       Uiso       1.00
      C189          C  0.0350599  0.4782922  0.9715827    0.00000       Uiso       1.00
       H61          H  0.0303908  0.4425548  0.0863804    0.00000       Uiso       1.00
       H62          H  0.9812662  0.4947349  0.9287509    0.00000       Uiso       1.00
      C190          C  0.0468096  0.4371468  0.1401911    0.00000       Uiso       1.00
      C191          C  0.0354947  0.4344063  0.1155703    0.00000       Uiso       1.00
      C192          C  0.0397454  0.4447733  0.1052906    0.00000       Uiso       1.00
      C193          C  0.0625059  0.4506067  0.1541960    0.00000       Uiso       1.00
      C194          C  0.0667773  0.4609524  0.1439207    0.00000       Uiso       1.00
      C195          C  0.0554676  0.4582230  0.1192887    0.00000       Uiso       1.00
       H63          H  0.0197170  0.6134179  0.1239383    0.00000       Uiso       1.00
       H64          H  0.0719065  0.4527453  0.1730835    0.00000       Uiso       1.00
       F57          F  0.2380895  0.4771352  0.1563390    0.00000       Uiso       1.00
       F58          F  0.0182654  0.4208469  0.1000379    0.00000       Uiso       1.00
       F59          F  0.0543089  0.4410841  0.9162539    0.00000       Uiso       1.00
       F60          F  0.9980114  0.6609131  0.1360704    0.00000       Uiso       1.00
       F61          F  0.0841409  0.4743596  0.1594636    0.00000       Uiso       1.00
       F62          F  0.1781342  0.4176988  0.1028012    0.00000       Uiso       1.00
       F63          F  0.0515371  0.6009556  0.0702047    0.00000       Uiso       1.00
       F64          F  0.9948869  0.5069730  0.9762199    0.00000       Uiso       1.00
      C196          C  0.1560776  0.4689079  0.1079902    0.00000       Uiso       1.00
      C197          C  0.1433303  0.4921188  0.1201544    0.00000       Uiso       1.00
      C198          C  0.1183478  0.5022362  0.1101567    0.00000       Uiso       1.00
      C199          C  0.1429457  0.4561222  0.0855354    0.00000       Uiso       1.00
      C200          C  0.1179703  0.4662366  0.0755566    0.00000       Uiso       1.00
      C201          C  0.1051555  0.4898725  0.0872153    0.00000       Uiso       1.00
       H65          H  0.0968512  0.4917821  0.0450939    0.00000       Uiso       1.00
       H66          H  0.1520000  0.4381774  0.0756031    0.00000       Uiso       1.00
      C202          C  0.0463557  0.5789001  0.0941764    0.00000       Uiso       1.00
      C203          C  0.0688102  0.5657686  0.0907129    0.00000       Uiso       1.00
      C204          C  0.0787893  0.5407922  0.0858287    0.00000       Uiso       1.00
      C205          C  0.0341917  0.5661531  0.0924765    0.00000       Uiso       1.00
      C206          C  0.0441899  0.5411700  0.0876073    0.00000       Uiso       1.00
      C207          C  0.0671306  0.5279773  0.0849908    0.00000       Uiso       1.00
       H67          H  0.1092504  0.5196718  0.1207222    0.00000       Uiso       1.00
       H68          H  0.0787389  0.5748259  0.0917536    0.00000       Uiso       1.00
      C208          C  0.0460852  0.4829900  0.9982684    0.00000       Uiso       1.00
      C209          C  0.0332991  0.4864555  0.0114008    0.00000       Uiso       1.00
      C210          C  0.0434129  0.4913394  0.0363763    0.00000       Uiso       1.00
      C211          C  0.0692963  0.4846909  0.0110150    0.00000       Uiso       1.00
      C212          C  0.0794140  0.4895585  0.0359973    0.00000       Uiso       1.00
      C213          C  0.0670496  0.4921750  0.0491900    0.00000       Uiso       1.00
       H69          H  0.0689580  0.4564543  0.0574964    0.00000       Uiso       1.00
       H70          H  0.0153545  0.4854136  0.0023468    0.00000       Uiso       1.00
      C214          C  0.0601665  0.4691854  0.1082635    0.00000       Uiso       1.00
      C215          C  0.0618638  0.4570220  0.0850516    0.00000       Uiso       1.00
      C216          C  0.0667341  0.4670171  0.0749338    0.00000       Uiso       1.00
      C217          C  0.0636372  0.4916372  0.1210519    0.00000       Uiso       1.00
      C218          C  0.0685233  0.5016125  0.1109370    0.00000       Uiso       1.00
      C219          C  0.0693559  0.4899551  0.0872990    0.00000       Uiso       1.00
       H71          H  0.0336254  0.5320697  0.0853769    0.00000       Uiso       1.00
       H72          H  0.0625992  0.5015700  0.1389983    0.00000       Uiso       1.00
       F65          F  0.1560772  0.5060199  0.1445222    0.00000       Uiso       1.00
       F66          F  0.0595720  0.4326588  0.0711491    0.00000       Uiso       1.00
       F67          F  0.0831956  0.4824056  0.9982637    0.00000       Uiso       1.00
       F68          F  0.0098225  0.5788990  0.0947538    0.00000       Uiso       1.00
       F69          F  0.0732320  0.5248505  0.1259195    0.00000       Uiso       1.00
       F70          F  0.1050087  0.4512579  0.0523124    0.00000       Uiso       1.00
       F71          F  0.1020296  0.5278271  0.0811241    0.00000       Uiso       1.00
       F72          F  0.0284310  0.4960388  0.0493365    0.00000       Uiso       1.00
      C220          C  0.4047212  0.0347088  0.1724465    0.00000       Uiso       1.00
      C221          C  0.4277407  0.0364726  0.1847587    0.00000       Uiso       1.00
      C222          C  0.4383074  0.0402437  0.1742652    0.00000       Uiso       1.00
      C223          C  0.3924091  0.0364729  0.1494271    0.00000       Uiso       1.00
      C224          C  0.4028205  0.0403480  0.1388835    0.00000       Uiso       1.00
      C225          C  0.4259513  0.0423594  0.1511627    0.00000       Uiso       1.00
       H73          H  0.4647836  0.9699260  0.8907047    0.00000       Uiso       1.00
       H74          H  0.3736435  0.0350143  0.1391044    0.00000       Uiso       1.00
      C226          C  0.7330046  0.9819009  0.1196383    0.00000       Uiso       1.00
      C227          C  0.7205333  0.9695887  0.1178744    0.00000       Uiso       1.00
      C228          C  0.6957034  0.9800001  0.1139996    0.00000       Uiso       1.00
      C229          C  0.7205334  0.0049200  0.1178744    0.00000       Uiso       1.00
      C230          C  0.6957024  0.0154869  0.1141039    0.00000       Uiso       1.00
      C231          C  0.6828405  0.0031306  0.1119885    0.00000       Uiso       1.00
       H75          H  0.4559834  0.0419628  0.1844242    0.00000       Uiso       1.00
       H76          H  0.7304350  0.9508230  0.1193331    0.00000       Uiso       1.00
      C232          C  0.4575321  0.9819029  0.8441663    0.00000       Uiso       1.00
      C233          C  0.4592960  0.0049219  0.8566375    0.00000       Uiso       1.00
      C234          C  0.4631715  0.0154650  0.8814673    0.00000       Uiso       1.00
      C235          C  0.4592960  0.9695905  0.8566375    0.00000       Uiso       1.00
      C236          C  0.4630658  0.9800843  0.8814683    0.00000       Uiso       1.00
      C237          C  0.4651819  0.0031860  0.8943300    0.00000       Uiso       1.00
       H77          H  0.3927455  0.2636443  0.1211835    0.00000       Uiso       1.00
       H78          H  0.4578373  0.0152447  0.8467359    0.00000       Uiso       1.00
      C238          C  0.4047212  0.3101827  0.1724465    0.00000       Uiso       1.00
      C239          C  0.3924091  0.2977116  0.1494270    0.00000       Uiso       1.00
      C240          C  0.4029035  0.2728806  0.1388601    0.00000       Uiso       1.00
      C241          C  0.4277407  0.2977113  0.1847586    0.00000       Uiso       1.00
      C242          C  0.4382845  0.2728815  0.1743475    0.00000       Uiso       1.00
      C243          C  0.4260060  0.2600188  0.1512166    0.00000       Uiso       1.00
       H79          H  0.6864661  0.0331631  0.1123850    0.00000       Uiso       1.00
      C244          C  0.4999948  0.0771736  0.0771733    0.00000       Uiso       1.00
       H80          H  0.4380633  0.3076128  0.2035241    0.00000       Uiso       1.00
       F73          F  0.4412325  0.0345658  0.2092855    0.00000       Uiso       1.00
       F74          F  0.3678822  0.3106534  0.1359351    0.00000       Uiso       1.00
       F75          F  0.4573895  0.9450636  0.8436960    0.00000       Uiso       1.00
       F76          F  0.7334750  0.0184121  0.1197810    0.00000       Uiso       1.00
       F77          F  0.4629276  0.2603836  0.1880850    0.00000       Uiso       1.00
       F78          F  0.3890833  0.0419396  0.1142403    0.00000       Uiso       1.00
       F79          F  0.6832060  0.9662625  0.1124079    0.00000       Uiso       1.00
       F80          F  0.4647642  0.0401078  0.8939654    0.00000       Uiso       1.00
      C245          C  0.4369774  0.0468113  0.1400231    0.00000       Uiso       1.00
      C246          C  0.4616004  0.0355039  0.1427722    0.00000       Uiso       1.00
      C247          C  0.4718802  0.0397577  0.1324079    0.00000       Uiso       1.00
      C248          C  0.4229712  0.0625022  0.1265568    0.00000       Uiso       1.00
      C249          C  0.4332461  0.0667757  0.1162127    0.00000       Uiso       1.00
      C250          C  0.4578810  0.0554742  0.1189519    0.00000       Uiso       1.00
       H81          H  0.4532110  0.0197368  0.9637465    0.00000       Uiso       1.00
       H82          H  0.4040820  0.0718982  0.1244127    0.00000       Uiso       1.00
      C251          C  0.6562232  0.0141570  0.1075373    0.00000       Uiso       1.00
      C252          C  0.6410720  0.0001517  0.0918445    0.00000       Uiso       1.00
      C253          C  0.6161796  0.0104265  0.0875703    0.00000       Uiso       1.00
      C254          C  0.6456574  0.0387794  0.1188465    0.00000       Uiso       1.00
      C255          C  0.6207594  0.0490591  0.1145922    0.00000       Uiso       1.00
      C256          C  0.6055861  0.0350608  0.0988738    0.00000       Uiso       1.00
       H83          H  0.4907924  0.0304112  0.1346336    0.00000       Uiso       1.00
       H84          H  0.6484209  0.9812638  0.0824464    0.00000       Uiso       1.00
      C257          C  0.4696331  0.0143256  0.9209470    0.00000       Uiso       1.00
      C258          C  0.4853322  0.0277825  0.9360990    0.00000       Uiso       1.00
      C259          C  0.4896044  0.0381267  0.9609911    0.00000       Uiso       1.00
      C260          C  0.4583159  0.0115866  0.9315114    0.00000       Uiso       1.00
      C261          C  0.4625671  0.0219526  0.9564087    0.00000       Uiso       1.00
      C262          C  0.4782920  0.0353989  0.9715828    0.00000       Uiso       1.00
       H85          H  0.4425548  0.1906026  0.0863804    0.00000       Uiso       1.00
       H86          H  0.4947348  0.0299191  0.9287509    0.00000       Uiso       1.00
      C263          C  0.4371466  0.2334016  0.1401911    0.00000       Uiso       1.00
      C264          C  0.4344062  0.2228366  0.1155703    0.00000       Uiso       1.00
      C265          C  0.4447732  0.1979394  0.1052906    0.00000       Uiso       1.00
      C266          C  0.4506066  0.2182500  0.1541960    0.00000       Uiso       1.00
      C267          C  0.4609523  0.1933578  0.1439207    0.00000       Uiso       1.00
      C268          C  0.4582229  0.1827653  0.1192887    0.00000       Uiso       1.00
       H87          H  0.6134178  0.0679707  0.1239384    0.00000       Uiso       1.00
       H88          H  0.4527452  0.2255979  0.1730835    0.00000       Uiso       1.00
       F81          F  0.4771351  0.0182810  0.1563391    0.00000       Uiso       1.00
       F82          F  0.4208468  0.2380932  0.1000379    0.00000       Uiso       1.00
       F83          F  0.4410839  0.9980307  0.9162540    0.00000       Uiso       1.00
       F84          F  0.6609130  0.0543132  0.1360705    0.00000       Uiso       1.00
       F85          F  0.4743595  0.1781296  0.1594637    0.00000       Uiso       1.00
       F86          F  0.4176987  0.0841358  0.1028013    0.00000       Uiso       1.00
       F87          F  0.6009554  0.9948807  0.0702047    0.00000       Uiso       1.00
       F88          F  0.5069728  0.0515284  0.9762200    0.00000       Uiso       1.00
      C269          C  0.4689078  0.0601723  0.1079903    0.00000       Uiso       1.00
      C270          C  0.4921187  0.0618725  0.1201545    0.00000       Uiso       1.00
      C271          C  0.5022361  0.0667401  0.1101568    0.00000       Uiso       1.00
      C272          C  0.4561221  0.0636353  0.0855354    0.00000       Uiso       1.00
      C273          C  0.4662365  0.0685178  0.0755567    0.00000       Uiso       1.00
      C274          C  0.4898724  0.0693551  0.0872153    0.00000       Uiso       1.00
       H89          H  0.4917820  0.0336291  0.0450939    0.00000       Uiso       1.00
       H90          H  0.4381773  0.0625937  0.0756031    0.00000       Uiso       1.00
      C275          C  0.5789000  0.0460883  0.0941765    0.00000       Uiso       1.00
      C276          C  0.5657685  0.0333019  0.0907130    0.00000       Uiso       1.00
      C277          C  0.5407921  0.0434150  0.0858287    0.00000       Uiso       1.00
      C278          C  0.5661530  0.0692994  0.0924765    0.00000       Uiso       1.00
      C279          C  0.5411699  0.0794153  0.0876073    0.00000       Uiso       1.00
      C280          C  0.5279772  0.0670507  0.0849908    0.00000       Uiso       1.00
       H91          H  0.5196717  0.0689673  0.1207223    0.00000       Uiso       1.00
       H92          H  0.5748259  0.0153565  0.0917536    0.00000       Uiso       1.00
      C281          C  0.4829898  0.0463610  0.9982684    0.00000       Uiso       1.00
      C282          C  0.4864554  0.0688154  0.0114009    0.00000       Uiso       1.00
      C283          C  0.4913393  0.0787927  0.0363763    0.00000       Uiso       1.00
      C284          C  0.4846908  0.0341971  0.0110151    0.00000       Uiso       1.00
      C285          C  0.4895585  0.0441936  0.0359973    0.00000       Uiso       1.00
      C286          C  0.4921750  0.0671339  0.0491901    0.00000       Uiso       1.00
       H93          H  0.4564542  0.1092525  0.0574965    0.00000       Uiso       1.00
       H94          H  0.4854134  0.0787481  0.0023468    0.00000       Uiso       1.00
      C287          C  0.4691853  0.1560790  0.1082635    0.00000       Uiso       1.00
      C288          C  0.4570219  0.1433337  0.0850516    0.00000       Uiso       1.00
      C289          C  0.4670170  0.1183506  0.0749338    0.00000       Uiso       1.00
      C290          C  0.4916371  0.1429447  0.1210519    0.00000       Uiso       1.00
      C291          C  0.5016124  0.1179686  0.1109371    0.00000       Uiso       1.00
      C292          C  0.4899550  0.1051558  0.0872990    0.00000       Uiso       1.00
       H95          H  0.5320696  0.0968497  0.0853769    0.00000       Uiso       1.00
       H96          H  0.5015699  0.1519960  0.1389984    0.00000       Uiso       1.00
       F89          F  0.5060198  0.0595920  0.1445223    0.00000       Uiso       1.00
       F90          F  0.4326587  0.1560864  0.0711491    0.00000       Uiso       1.00
       F91          F  0.4824055  0.0098303  0.9982637    0.00000       Uiso       1.00
       F92          F  0.5788989  0.0832000  0.0947539    0.00000       Uiso       1.00
       F93          F  0.5248504  0.1050041  0.1259195    0.00000       Uiso       1.00
       F94          F  0.4512579  0.0732142  0.0523124    0.00000       Uiso       1.00
       F95          F  0.5278270  0.0284353  0.0811241    0.00000       Uiso       1.00
       F96          F  0.4960387  0.1020352  0.0493365    0.00000       Uiso       1.00
      C293          C  0.4047262  0.3101878  0.5424640    0.00000       Uiso       1.00
      C294          C  0.4277458  0.2977165  0.5407001    0.00000       Uiso       1.00
      C295          C  0.4383124  0.2728854  0.5369291    0.00000       Uiso       1.00
      C296          C  0.3924139  0.2977165  0.5407001    0.00000       Uiso       1.00
      C297          C  0.4028253  0.2728866  0.5368251    0.00000       Uiso       1.00
      C298          C  0.4259562  0.2600235  0.5348136    0.00000       Uiso       1.00
       H97          H  0.4647863  0.0331678  0.6072485    0.00000       Uiso       1.00
       H98          H  0.3736482  0.3076182  0.5421588    0.00000       Uiso       1.00
      C299          C  0.7330086  0.9819049  0.5952724    0.00000       Uiso       1.00
      C300          C  0.7205373  0.0049239  0.6075846    0.00000       Uiso       1.00
      C301          C  0.6957074  0.0154678  0.5971733    0.00000       Uiso       1.00
      C302          C  0.7205376  0.9695929  0.5722530    0.00000       Uiso       1.00
      C303          C  0.6957066  0.9800867  0.5616863    0.00000       Uiso       1.00
      C304          C  0.6828448  0.0031888  0.5740424    0.00000       Uiso       1.00
       H99          H  0.4559886  0.2636492  0.5352100    0.00000       Uiso       1.00
      H100          H  0.7304388  0.0152465  0.6263500    0.00000       Uiso       1.00
      C305          C  0.4575344  0.9819051  0.5952722    0.00000       Uiso       1.00
      C306          C  0.4592986  0.9695930  0.5722528    0.00000       Uiso       1.00
      C307          C  0.4631743  0.9800042  0.5617095    0.00000       Uiso       1.00
      C308          C  0.4592983  0.0049241  0.6075845    0.00000       Uiso       1.00
      C309          C  0.4630685  0.0154912  0.5970905    0.00000       Uiso       1.00
      C310          C  0.4651849  0.0031347  0.5739884    0.00000       Uiso       1.00
      H101          H  0.3927522  0.0419674  0.3135310    0.00000       Uiso       1.00
      H102          H  0.4578399  0.9508274  0.5619302    0.00000       Uiso       1.00
      C311          C  0.4047287  0.0347162  0.2669925    0.00000       Uiso       1.00
      C312          C  0.3924164  0.0364800  0.2794637    0.00000       Uiso       1.00
      C313          C  0.4029104  0.0402496  0.3042946    0.00000       Uiso       1.00
      C314          C  0.4277483  0.0364800  0.2794637    0.00000       Uiso       1.00
      C315          C  0.4382918  0.0403548  0.3042935    0.00000       Uiso       1.00
      C316          C  0.4260129  0.0423653  0.3171563    0.00000       Uiso       1.00
      H103          H  0.6864704  0.9699280  0.5440102    0.00000       Uiso       1.00
      C317          C  0.4999993  0.0771774  0.5000004    0.00000       Uiso       1.00
      H104          H  0.4380711  0.0350214  0.2695622    0.00000       Uiso       1.00
       F97          F  0.4412378  0.3106581  0.5426067    0.00000       Uiso       1.00
       F98          F  0.3678894  0.0345736  0.2665222    0.00000       Uiso       1.00
       F99          F  0.4573915  0.0184159  0.6321113    0.00000       Uiso       1.00
      F100          F  0.7334794  0.9450659  0.5587611    0.00000       Uiso       1.00
      F101          F  0.4629348  0.0419469  0.3167911    0.00000       Uiso       1.00
      F102          F  0.3890878  0.2603893  0.5352337    0.00000       Uiso       1.00
      F103          F  0.6832100  0.0401110  0.6109108    0.00000       Uiso       1.00
      F104          F  0.4647674  0.9662668  0.5370669    0.00000       Uiso       1.00
      C318          C  0.4369822  0.2334059  0.5303618    0.00000       Uiso       1.00
      C319          C  0.4616051  0.2228394  0.5416691    0.00000       Uiso       1.00
      C320          C  0.4718849  0.1979416  0.5374155    0.00000       Uiso       1.00
      C321          C  0.4229760  0.2182553  0.5146713    0.00000       Uiso       1.00
      C322          C  0.4332509  0.1933629  0.5103979    0.00000       Uiso       1.00
      C323          C  0.4578857  0.1827686  0.5216992    0.00000       Uiso       1.00
      H105          H  0.4532147  0.0679708  0.5574371    0.00000       Uiso       1.00
      H106          H  0.4040869  0.2256044  0.5052753    0.00000       Uiso       1.00
      C324          C  0.6562275  0.0143286  0.5630162    0.00000       Uiso       1.00
      C325          C  0.6410760  0.0277924  0.5770215    0.00000       Uiso       1.00
      C326          C  0.6161836  0.0381360  0.5667469    0.00000       Uiso       1.00
      C327          C  0.6456620  0.0115814  0.5383939    0.00000       Uiso       1.00
      C328          C  0.6207640  0.0219456  0.5281144    0.00000       Uiso       1.00
      C329          C  0.6055904  0.0353988  0.5421126    0.00000       Uiso       1.00
      H107          H  0.4907970  0.1906015  0.5467619    0.00000       Uiso       1.00
      H108          H  0.6484246  0.0299336  0.5959098    0.00000       Uiso       1.00
      C330          C  0.4696364  0.0141606  0.5628486    0.00000       Uiso       1.00
      C331          C  0.4853358  0.0001566  0.5493917    0.00000       Uiso       1.00
      C332          C  0.4896083  0.0104323  0.5390474    0.00000       Uiso       1.00
      C333          C  0.4583192  0.0387811  0.5655875    0.00000       Uiso       1.00
      C334          C  0.4625708  0.0490611  0.5552214    0.00000       Uiso       1.00
      C335          C  0.4782960  0.0350639  0.5417750    0.00000       Uiso       1.00
      H109          H  0.4425604  0.0303965  0.3865724    0.00000       Uiso       1.00
      H110          H  0.4947383  0.9812701  0.5472552    0.00000       Uiso       1.00
      C336          C  0.4371532  0.0468162  0.3437733    0.00000       Uiso       1.00
      C337          C  0.4344124  0.0355009  0.3543384    0.00000       Uiso       1.00
      C338          C  0.4447791  0.0397513  0.3792354    0.00000       Uiso       1.00
      C339          C  0.4506131  0.0625125  0.3589246    0.00000       Uiso       1.00
      C340          C  0.4609585  0.0667836  0.3838167    0.00000       Uiso       1.00
      C341          C  0.4582288  0.0554735  0.3944093    0.00000       Uiso       1.00
      H111          H  0.6134226  0.0197219  0.5092028    0.00000       Uiso       1.00
      H112          H  0.4527520  0.0719133  0.3515766    0.00000       Uiso       1.00
      F105          F  0.4771398  0.2380942  0.5588918    0.00000       Uiso       1.00
      F106          F  0.4208530  0.0182716  0.3390821    0.00000       Uiso       1.00
      F107          F  0.4410871  0.0543121  0.5791439    0.00000       Uiso       1.00
      F108          F  0.6609178  0.9980165  0.5228601    0.00000       Uiso       1.00
      F109          F  0.4743657  0.0841471  0.3990445    0.00000       Uiso       1.00
      F110          F  0.4177035  0.1781391  0.4930381    0.00000       Uiso       1.00
      F111          F  0.6009592  0.0515409  0.5822933    0.00000       Uiso       1.00
      F112          F  0.5069768  0.9948915  0.5256456    0.00000       Uiso       1.00
      C342          C  0.4689125  0.1560822  0.5170013    0.00000       Uiso       1.00
      C343          C  0.4921235  0.1433352  0.5153009    0.00000       Uiso       1.00
      C344          C  0.5022408  0.1183526  0.5104335    0.00000       Uiso       1.00
      C345          C  0.4561265  0.1429502  0.5135385    0.00000       Uiso       1.00
      C346          C  0.4662409  0.1179748  0.5086562    0.00000       Uiso       1.00
      C347          C  0.4898769  0.1051601  0.5078187    0.00000       Uiso       1.00
      H113          H  0.4917859  0.0968551  0.5435448    0.00000       Uiso       1.00
      H114          H  0.4381817  0.1520044  0.5145802    0.00000       Uiso       1.00
      C348          C  0.5789044  0.0463602  0.5310853    0.00000       Uiso       1.00
      C349          C  0.5657727  0.0688145  0.5438716    0.00000       Uiso       1.00
      C350          C  0.5407964  0.0787936  0.5337586    0.00000       Uiso       1.00
      C351          C  0.5661576  0.0341964  0.5078744    0.00000       Uiso       1.00
      C352          C  0.5411745  0.0441945  0.4977587    0.00000       Uiso       1.00
      C353          C  0.5279817  0.0671352  0.5101232    0.00000       Uiso       1.00
      H115          H  0.5196765  0.1092552  0.5082062    0.00000       Uiso       1.00
      H116          H  0.5748299  0.0787431  0.5618169    0.00000       Uiso       1.00
      C354          C  0.4829941  0.0460896  0.5308128    0.00000       Uiso       1.00
      C355          C  0.4864593  0.0333030  0.5083591    0.00000       Uiso       1.00
      C356          C  0.4913434  0.0434171  0.4983817    0.00000       Uiso       1.00
      C357          C  0.4846943  0.0692999  0.5429772    0.00000       Uiso       1.00
      C358          C  0.4895623  0.0794178  0.5329805    0.00000       Uiso       1.00
      C359          C  0.4921792  0.0670538  0.5100403    0.00000       Uiso       1.00
      H117          H  0.4564588  0.0689627  0.4679220    0.00000       Uiso       1.00
      H118          H  0.4854173  0.0153584  0.4984266    0.00000       Uiso       1.00
      C360          C  0.4691908  0.0601721  0.4210955    0.00000       Uiso       1.00
      C361          C  0.4570270  0.0618690  0.4338408    0.00000       Uiso       1.00
      C362          C  0.4670219  0.0667391  0.4588238    0.00000       Uiso       1.00
      C363          C  0.4916426  0.0636427  0.4342295    0.00000       Uiso       1.00
      C364          C  0.5016176  0.0685286  0.4592055    0.00000       Uiso       1.00
      C365          C  0.4899599  0.0693609  0.4720184    0.00000       Uiso       1.00
      H119          H  0.5320744  0.0336302  0.4803244    0.00000       Uiso       1.00
      H120          H  0.5015757  0.0626051  0.4251782    0.00000       Uiso       1.00
      F113          F  0.5060248  0.1560822  0.5175813    0.00000       Uiso       1.00
      F114          F  0.4326639  0.0595772  0.4210883    0.00000       Uiso       1.00
      F115          F  0.4824094  0.0831997  0.5673432    0.00000       Uiso       1.00
      F116          F  0.5789037  0.0098272  0.4939739    0.00000       Uiso       1.00
      F117          F  0.5248556  0.0732372  0.4721697    0.00000       Uiso       1.00
      F118          F  0.4512621  0.1050130  0.5039600    0.00000       Uiso       1.00
      F119          F  0.5278312  0.1020338  0.5487383    0.00000       Uiso       1.00
      F120          F  0.4960432  0.0284355  0.4751393    0.00000       Uiso       1.00
      C366          C  0.0347086  0.3101828  0.1724465    0.00000       Uiso       1.00
      C367          C  0.0364724  0.2977114  0.1847587    0.00000       Uiso       1.00
      C368          C  0.0402435  0.2728803  0.1742652    0.00000       Uiso       1.00
      C369          C  0.0364727  0.2977117  0.1494271    0.00000       Uiso       1.00
      C370          C  0.0403478  0.2728818  0.1388835    0.00000       Uiso       1.00
      C371          C  0.0423593  0.2600186  0.1511627    0.00000       Uiso       1.00
      H121          H  0.9699255  0.0331652  0.8907047    0.00000       Uiso       1.00
      H122          H  0.0350141  0.3076135  0.1391044    0.00000       Uiso       1.00
      C372          C  0.9819004  0.9819009  0.1196383    0.00000       Uiso       1.00
      C373          C  0.9695882  0.0049200  0.1178744    0.00000       Uiso       1.00
      C374          C  0.9799996  0.0154638  0.1139996    0.00000       Uiso       1.00
      C375          C  0.0049199  0.9695886  0.1178744    0.00000       Uiso       1.00
      C376          C  0.0154866  0.9800825  0.1141039    0.00000       Uiso       1.00
      C377          C  0.0031305  0.0031846  0.1119885    0.00000       Uiso       1.00
      H123          H  0.0419626  0.2636440  0.1844242    0.00000       Uiso       1.00
      H124          H  0.9508225  0.0152428  0.1193331    0.00000       Uiso       1.00
      C378          C  0.9819023  0.9819028  0.8441663    0.00000       Uiso       1.00
      C379          C  0.0049216  0.9695904  0.8566375    0.00000       Uiso       1.00
      C380          C  0.0154647  0.9800013  0.8814673    0.00000       Uiso       1.00
      C381          C  0.9695899  0.0049219  0.8566375    0.00000       Uiso       1.00
      C382          C  0.9800837  0.0154886  0.8814683    0.00000       Uiso       1.00
      C383          C  0.0031857  0.0031318  0.8943300    0.00000       Uiso       1.00
      H125          H  0.2636442  0.0419608  0.1211835    0.00000       Uiso       1.00
      H126          H  0.0152445  0.9508249  0.8467360    0.00000       Uiso       1.00
      C384          C  0.3101826  0.0347087  0.1724465    0.00000       Uiso       1.00
      C385          C  0.2977115  0.0364729  0.1494271    0.00000       Uiso       1.00
      C386          C  0.2728805  0.0402427  0.1388601    0.00000       Uiso       1.00
      C387          C  0.2977112  0.0364726  0.1847587    0.00000       Uiso       1.00
      C388          C  0.2728813  0.0403477  0.1743476    0.00000       Uiso       1.00
      C389          C  0.2600186  0.0423585  0.1512167    0.00000       Uiso       1.00
      H127          H  0.0331629  0.9699236  0.1123850    0.00000       Uiso       1.00
      C390          C  0.0771734  0.0771729  0.0771733    0.00000       Uiso       1.00
      H128          H  0.3076127  0.0350137  0.2035242    0.00000       Uiso       1.00
      F121          F  0.0345656  0.3106528  0.2092855    0.00000       Uiso       1.00
      F122          F  0.3106533  0.0345664  0.1359352    0.00000       Uiso       1.00
      F123          F  0.9450630  0.0184140  0.8436960    0.00000       Uiso       1.00
      F124          F  0.0184118  0.9450616  0.1197810    0.00000       Uiso       1.00
      F125          F  0.2603835  0.0419397  0.1880850    0.00000       Uiso       1.00
      F126          F  0.0419394  0.2603847  0.1142403    0.00000       Uiso       1.00
      F127          F  0.9662619  0.0401071  0.1124079    0.00000       Uiso       1.00
      F128          F  0.0401075  0.9662636  0.8939654    0.00000       Uiso       1.00
      C391          C  0.0468112  0.2334011  0.1400231    0.00000       Uiso       1.00
      C392          C  0.0355037  0.2228346  0.1427722    0.00000       Uiso       1.00
      C393          C  0.0397575  0.1979369  0.1324079    0.00000       Uiso       1.00
      C394          C  0.0625020  0.2182505  0.1265568    0.00000       Uiso       1.00
      C395          C  0.0667755  0.1933581  0.1162127    0.00000       Uiso       1.00
      C396          C  0.0554740  0.1827639  0.1189519    0.00000       Uiso       1.00
      H129          H  0.0197366  0.0679671  0.9637465    0.00000       Uiso       1.00
      H130          H  0.0718980  0.2255995  0.1244127    0.00000       Uiso       1.00
      C397          C  0.0141569  0.0143244  0.1075373    0.00000       Uiso       1.00
      C398          C  0.0001515  0.0277884  0.0918445    0.00000       Uiso       1.00
      C399          C  0.0104263  0.0381320  0.0875703    0.00000       Uiso       1.00
      C400          C  0.0387793  0.0115768  0.1188465    0.00000       Uiso       1.00
      C401          C  0.0490589  0.0219410  0.1145922    0.00000       Uiso       1.00
      C402          C  0.0350606  0.0353944  0.0988738    0.00000       Uiso       1.00
      H131          H  0.0304110  0.1905968  0.1346336    0.00000       Uiso       1.00
      H132          H  0.9812633  0.0299300  0.0824464    0.00000       Uiso       1.00
      C403          C  0.0143254  0.0141574  0.9209470    0.00000       Uiso       1.00
      C404          C  0.0277822  0.0001532  0.9360990    0.00000       Uiso       1.00
      C405          C  0.0381264  0.0104285  0.9609911    0.00000       Uiso       1.00
      C406          C  0.0115864  0.0387778  0.9315114    0.00000       Uiso       1.00
      C407          C  0.0219523  0.0490575  0.9564087    0.00000       Uiso       1.00
      C408          C  0.0353987  0.0350600  0.9715828    0.00000       Uiso       1.00
      H133          H  0.1906025  0.0303909  0.0863805    0.00000       Uiso       1.00
      H134          H  0.0299188  0.9812667  0.9287510    0.00000       Uiso       1.00
      C409          C  0.2334014  0.0468097  0.1401911    0.00000       Uiso       1.00
      C410          C  0.2228365  0.0354947  0.1155703    0.00000       Uiso       1.00
      C411          C  0.1979393  0.0397454  0.1052906    0.00000       Uiso       1.00
      C412          C  0.2182498  0.0625060  0.1541961    0.00000       Uiso       1.00
      C413          C  0.1933576  0.0667774  0.1439208    0.00000       Uiso       1.00
      C414          C  0.1827652  0.0554677  0.1192887    0.00000       Uiso       1.00
      H135          H  0.0679705  0.0197170  0.1239384    0.00000       Uiso       1.00
      H136          H  0.2255978  0.0719065  0.1730836    0.00000       Uiso       1.00
      F129          F  0.0182808  0.2380895  0.1563391    0.00000       Uiso       1.00
      F130          F  0.2380931  0.0182654  0.1000380    0.00000       Uiso       1.00
      F131          F  0.9980301  0.0543091  0.9162540    0.00000       Uiso       1.00
      F132          F  0.0543130  0.9980116  0.1360705    0.00000       Uiso       1.00
      F133          F  0.1781295  0.0841410  0.1594637    0.00000       Uiso       1.00
      F134          F  0.0841356  0.1781343  0.1028013    0.00000       Uiso       1.00
      F135          F  0.9948801  0.0515371  0.0702047    0.00000       Uiso       1.00
      F136          F  0.0515281  0.9948874  0.9762200    0.00000       Uiso       1.00
      C415          C  0.0601721  0.1560776  0.1079903    0.00000       Uiso       1.00
      C416          C  0.0618724  0.1433304  0.1201545    0.00000       Uiso       1.00
      C417          C  0.0667400  0.1183479  0.1101568    0.00000       Uiso       1.00
      C418          C  0.0636352  0.1429458  0.0855354    0.00000       Uiso       1.00
      C419          C  0.0685176  0.1179703  0.0755567    0.00000       Uiso       1.00
      C420          C  0.0693550  0.1051555  0.0872153    0.00000       Uiso       1.00
      H137          H  0.0336290  0.0968512  0.0450939    0.00000       Uiso       1.00
      H138          H  0.0625936  0.1520000  0.0756031    0.00000       Uiso       1.00
      C421          C  0.0460882  0.0463558  0.0941765    0.00000       Uiso       1.00
      C422          C  0.0333018  0.0688102  0.0907130    0.00000       Uiso       1.00
      C423          C  0.0434149  0.0787893  0.0858287    0.00000       Uiso       1.00
      C424          C  0.0692992  0.0341918  0.0924765    0.00000       Uiso       1.00
      C425          C  0.0794151  0.0441899  0.0876073    0.00000       Uiso       1.00
      C426          C  0.0670505  0.0671307  0.0849908    0.00000       Uiso       1.00
      H139          H  0.0689672  0.1092504  0.1207223    0.00000       Uiso       1.00
      H140          H  0.0153563  0.0787390  0.0917536    0.00000       Uiso       1.00
      C427          C  0.0463607  0.0460854  0.9982684    0.00000       Uiso       1.00
      C428          C  0.0688153  0.0332991  0.0114009    0.00000       Uiso       1.00
      C429          C  0.0787926  0.0434130  0.0363763    0.00000       Uiso       1.00
      C430          C  0.0341970  0.0692963  0.0110151    0.00000       Uiso       1.00
      C431          C  0.0441934  0.0794140  0.0359973    0.00000       Uiso       1.00
      C432          C  0.0671337  0.0670496  0.0491901    0.00000       Uiso       1.00
      H141          H  0.1092523  0.0689581  0.0574965    0.00000       Uiso       1.00
      H142          H  0.0787480  0.0153545  0.0023468    0.00000       Uiso       1.00
      C433          C  0.1560789  0.0601666  0.1082636    0.00000       Uiso       1.00
      C434          C  0.1433336  0.0618639  0.0850516    0.00000       Uiso       1.00
      C435          C  0.1183505  0.0667342  0.0749338    0.00000       Uiso       1.00
      C436          C  0.1429446  0.0636372  0.1210519    0.00000       Uiso       1.00
      C437          C  0.1179684  0.0685234  0.1109371    0.00000       Uiso       1.00
      C438          C  0.1051557  0.0693560  0.0872990    0.00000       Uiso       1.00
      H143          H  0.0968496  0.0336254  0.0853770    0.00000       Uiso       1.00
      H144          H  0.1519958  0.0625993  0.1389984    0.00000       Uiso       1.00
      F137          F  0.0595918  0.1560772  0.1445223    0.00000       Uiso       1.00
      F138          F  0.1560863  0.0595720  0.0711492    0.00000       Uiso       1.00
      F139          F  0.0098300  0.0831958  0.9982637    0.00000       Uiso       1.00
      F140          F  0.0831999  0.0098225  0.0947539    0.00000       Uiso       1.00
      F141          F  0.1050040  0.0732320  0.1259196    0.00000       Uiso       1.00
      F142          F  0.0732141  0.1050087  0.0523124    0.00000       Uiso       1.00
      F143          F  0.0284351  0.1020296  0.0811241    0.00000       Uiso       1.00
      F144          F  0.1020351  0.0284310  0.0493365    0.00000       Uiso       1.00
      C439          C  0.7960379  0.4531409  0.6344958    0.00000       Uiso       1.00
      C440          C  0.8166302  0.4519088  0.6549377    0.00000       Uiso       1.00
      C441          C  0.8172846  0.4495144  0.6745579    0.00000       Uiso       1.00
      C442          C  0.8376366  0.4495249  0.6953479    0.00000       Uiso       1.00
      C443          C  0.8573221  0.4532948  0.6975287    0.00000       Uiso       1.00
      C444          C  0.8561248  0.4560353  0.6776646    0.00000       Uiso       1.00
      C445          C  0.8368837  0.4536787  0.6557392    0.00000       Uiso       1.00
        O1          O  0.7744449  0.4526246  0.6312156    0.00000       Uiso       1.00
      H145          H  0.8019140  0.4476114  0.6736837    0.00000       Uiso       1.00
      H146          H  0.8375487  0.4468173  0.7096566    0.00000       Uiso       1.00
      H147          H  0.8695037  0.4615570  0.6797261    0.00000       Uiso       1.00
      C446          C  0.9427083  0.4530778  0.6146812    0.00000       Uiso       1.00
      C447          C  0.9222714  0.4518315  0.6135968    0.00000       Uiso       1.00
      C448          C  0.9026437  0.4494494  0.5922420    0.00000       Uiso       1.00
      C449          C  0.8818527  0.4494672  0.5918210    0.00000       Uiso       1.00
      C450          C  0.8796750  0.4532383  0.6130974    0.00000       Uiso       1.00
      C451          C  0.8995532  0.4559547  0.6344963    0.00000       Uiso       1.00
      C452          C  0.9214793  0.4535879  0.6348160    0.00000       Uiso       1.00
        O2          O  0.9459715  0.4525941  0.5958583    0.00000       Uiso       1.00
      H148          H  0.9035050  0.4475623  0.5758439    0.00000       Uiso       1.00
      H149          H  0.8675389  0.4467718  0.5747198    0.00000       Uiso       1.00
      H150          H  0.8975055  0.4614745  0.6513399    0.00000       Uiso       1.00
      C453          C  0.9624830  0.4530981  0.7811175    0.00000       Uiso       1.00
      C454          C  0.9635726  0.4518335  0.7605155    0.00000       Uiso       1.00
      C455          C  0.9849389  0.4494177  0.7598568    0.00000       Uiso       1.00
      C456          C  0.9853756  0.4494057  0.7394968    0.00000       Uiso       1.00
      C457          C  0.9641030  0.4531738  0.7198085    0.00000       Uiso       1.00
      C458          C  0.9426904  0.4559227  0.7210065    0.00000       Uiso       1.00
      C459          C  0.9423534  0.4535965  0.7402608    0.00000       Uiso       1.00
        O3          O  0.9813133  0.4525857  0.8027089    0.00000       Uiso       1.00
      H151          H  0.0013313  0.4475276  0.7752377    0.00000       Uiso       1.00
      H152          H  0.0024824  0.4466926  0.7395852    0.00000       Uiso       1.00
      H153          H  0.9258527  0.4614360  0.7076222    0.00000       Uiso       1.00
      C460          C  0.9414487  0.4562131  0.7820961    0.00000       Uiso       1.00
      C461          C  0.9204000  0.4567840  0.7620699    0.00000       Uiso       1.00
      C462          C  0.8990766  0.4593921  0.7629794    0.00000       Uiso       1.00
      C463          C  0.8784434  0.4590075  0.7424728    0.00000       Uiso       1.00
      C464          C  0.8790469  0.4546164  0.7201816    0.00000       Uiso       1.00
      C465          C  0.9008927  0.4514911  0.7195588    0.00000       Uiso       1.00
      C466          C  0.9210700  0.4542865  0.7404712    0.00000       Uiso       1.00
        O4          O  0.9439688  0.4579887  0.8044025    0.00000       Uiso       1.00
      H154          H  0.8984550  0.4618243  0.7797182    0.00000       Uiso       1.00
      H155          H  0.8622159  0.4619851  0.7443492    0.00000       Uiso       1.00
      H156          H  0.9027261  0.4454578  0.7024836    0.00000       Uiso       1.00
      C467          C  0.9616247  0.4561515  0.6357074    0.00000       Uiso       1.00
      C468          C  0.9620830  0.4566997  0.6567488    0.00000       Uiso       1.00
      C469          C  0.9817283  0.4592559  0.6780613    0.00000       Uiso       1.00
      C470          C  0.9822401  0.4588550  0.6986859    0.00000       Uiso       1.00
      C471          C  0.9637128  0.4545039  0.6980886    0.00000       Uiso       1.00
      C472          C  0.9443510  0.4514271  0.6762517    0.00000       Uiso       1.00
      C473          C  0.9422965  0.4542348  0.6560847    0.00000       Uiso       1.00
        O5          O  0.9796385  0.4579201  0.6331865    0.00000       Uiso       1.00
      H157          H  0.9966686  0.4616712  0.6786844    0.00000       Uiso       1.00
      H158          H  0.9973851  0.4617964  0.7149041    0.00000       Uiso       1.00
      H159          H  0.9314566  0.4454112  0.6744068    0.00000       Uiso       1.00
      C474          C  0.7950768  0.4562173  0.6155812    0.00000       Uiso       1.00
      C475          C  0.8151072  0.4567816  0.6151330    0.00000       Uiso       1.00
      C476          C  0.8142174  0.4593312  0.5954846    0.00000       Uiso       1.00
      C477          C  0.8347298  0.4589271  0.5949675    0.00000       Uiso       1.00
      C478          C  0.8570112  0.4545883  0.6135013    0.00000       Uiso       1.00
      C479          C  0.8576114  0.4515283  0.6328745    0.00000       Uiso       1.00
      C480          C  0.8366907  0.4543301  0.6349255    0.00000       Uiso       1.00
        O6          O  0.7727836  0.4579597  0.5975528    0.00000       Uiso       1.00
      H160          H  0.7974837  0.4617372  0.5805428    0.00000       Uiso       1.00
      H161          H  0.8328597  0.4618533  0.5798122    0.00000       Uiso       1.00
      H162          H  0.8746778  0.4455243  0.6457778    0.00000       Uiso       1.00
        B1          B  0.7598173  0.4556905  0.6076893    0.00000       Uiso       1.00
        B2          B  0.9694915  0.4556723  0.6078199    0.00000       Uiso       1.00
        B3          B  0.9693470  0.4556929  0.8173561    0.00000       Uiso       1.00
      C481          C  0.4531409  0.7960385  0.6146848    0.00000       Uiso       1.00
      C482          C  0.4519090  0.8166310  0.6136031    0.00000       Uiso       1.00
      C483          C  0.4495150  0.8172858  0.5922434    0.00000       Uiso       1.00
      C484          C  0.4495257  0.8376380  0.5918161    0.00000       Uiso       1.00
      C485          C  0.4532954  0.8573233  0.6130905    0.00000       Uiso       1.00
      C486          C  0.4560355  0.8561255  0.6344973    0.00000       Uiso       1.00
      C487          C  0.4536787  0.8368844  0.6348249    0.00000       Uiso       1.00
        O7          O  0.4526247  0.7744457  0.5958558    0.00000       Uiso       1.00
      H163          H  0.4476121  0.8019153  0.5758442    0.00000       Uiso       1.00
      H164          H  0.4468184  0.8375503  0.5747122    0.00000       Uiso       1.00
      H165          H  0.4615570  0.8695045  0.6513364    0.00000       Uiso       1.00
      C488          C  0.4530761  0.9427072  0.7811049    0.00000       Uiso       1.00
      C489          C  0.4518301  0.9222704  0.7605063    0.00000       Uiso       1.00
      C490          C  0.4494477  0.9026425  0.7598511    0.00000       Uiso       1.00
      C491          C  0.4494657  0.8818518  0.7394992    0.00000       Uiso       1.00
      C492          C  0.4532371  0.8796745  0.7198165    0.00000       Uiso       1.00
      C493          C  0.4559537  0.8995529  0.7210124    0.00000       Uiso       1.00
      C494          C  0.4535868  0.9214787  0.7402518    0.00000       Uiso       1.00
        O8          O  0.4525920  0.9459700  0.8027069    0.00000       Uiso       1.00
      H166          H  0.4475603  0.9035037  0.7752233    0.00000       Uiso       1.00
      H167          H  0.4467701  0.8675379  0.7395909    0.00000       Uiso       1.00
      H168          H  0.4614738  0.8975054  0.7076411    0.00000       Uiso       1.00
      C495          C  0.4530992  0.9624848  0.6344664    0.00000       Uiso       1.00
      C496          C  0.4518343  0.9635740  0.6548931    0.00000       Uiso       1.00
      C497          C  0.4494183  0.9849401  0.6745021    0.00000       Uiso       1.00
      C498          C  0.4494059  0.9853764  0.6952865    0.00000       Uiso       1.00
      C499          C  0.4531738  0.9641035  0.6974699    0.00000       Uiso       1.00
      C500          C  0.4559230  0.9426912  0.6776085    0.00000       Uiso       1.00
      C501          C  0.4535971  0.9423546  0.6556913    0.00000       Uiso       1.00
        O9          O  0.4525871  0.9813153  0.6311932    0.00000       Uiso       1.00
      H169          H  0.4475284  0.0013323  0.6736237    0.00000       Uiso       1.00
      H170          H  0.4466927  0.0024828  0.7095917    0.00000       Uiso       1.00
      H171          H  0.4614361  0.9258533  0.6796681    0.00000       Uiso       1.00
      C502          C  0.4562144  0.9414506  0.6155686    0.00000       Uiso       1.00
      C503          C  0.4567851  0.9204017  0.6151169    0.00000       Uiso       1.00
      C504          C  0.4593934  0.8990785  0.5954923    0.00000       Uiso       1.00
      C505          C  0.4590087  0.8784451  0.5949810    0.00000       Uiso       1.00
      C506          C  0.4546172  0.8790482  0.6134841    0.00000       Uiso       1.00
      C507          C  0.4514917  0.9008939  0.6328273    0.00000       Uiso       1.00
      C508          C  0.4542873  0.9210714  0.6348877    0.00000       Uiso       1.00
       O10          O  0.4579904  0.9439711  0.5975584    0.00000       Uiso       1.00
      H172          H  0.4618259  0.8984572  0.5805644    0.00000       Uiso       1.00
      H173          H  0.4619864  0.8622178  0.5798548    0.00000       Uiso       1.00
      H174          H  0.4454582  0.9027270  0.6457023    0.00000       Uiso       1.00
      C509          C  0.4561500  0.9616238  0.7820690    0.00000       Uiso       1.00
      C510          C  0.4566985  0.9620824  0.7620344    0.00000       Uiso       1.00
      C511          C  0.4592549  0.9817280  0.7629237    0.00000       Uiso       1.00
      C512          C  0.4588544  0.9822402  0.7424102    0.00000       Uiso       1.00
      C513          C  0.4545035  0.9637130  0.7201294    0.00000       Uiso       1.00
      C514          C  0.4514265  0.9443511  0.7195275    0.00000       Uiso       1.00
      C515          C  0.4542339  0.9422961  0.7404474    0.00000       Uiso       1.00
       O11          O  0.4579183  0.9796374  0.8043721    0.00000       Uiso       1.00
      H175          H  0.4616701  0.9966682  0.7796560    0.00000       Uiso       1.00
      H176          H  0.4617960  0.9973853  0.7442787    0.00000       Uiso       1.00
      H177          H  0.4454108  0.9314567  0.7024622    0.00000       Uiso       1.00
      C516          C  0.4562170  0.7950770  0.6357142    0.00000       Uiso       1.00
      C517          C  0.4567811  0.8151073  0.6567570    0.00000       Uiso       1.00
      C518          C  0.4593303  0.8142171  0.6780648    0.00000       Uiso       1.00
      C519          C  0.4589260  0.8347293  0.6986899    0.00000       Uiso       1.00
      C520          C  0.4545873  0.8570109  0.6980990    0.00000       Uiso       1.00
      C521          C  0.4515277  0.8576114  0.6762663    0.00000       Uiso       1.00
      C522          C  0.4543298  0.8366908  0.6560966    0.00000       Uiso       1.00
       O12          O  0.4579593  0.7727838  0.6331918    0.00000       Uiso       1.00
      H178          H  0.4617361  0.7974832  0.6786787    0.00000       Uiso       1.00
      H179          H  0.4618519  0.8328589  0.7149010    0.00000       Uiso       1.00
      H180          H  0.4455239  0.8746780  0.6744256    0.00000       Uiso       1.00
        B4          B  0.4556903  0.7598177  0.6078199    0.00000       Uiso       1.00
        B5          B  0.4556702  0.9694900  0.8173435    0.00000       Uiso       1.00
        B6          B  0.4556947  0.9693493  0.6076872    0.00000       Uiso       1.00
       Si1         Si  0.3822353  0.3822354  0.5695304    0.00000       Uiso       1.00
        B7          B  0.3365211  0.3903233  0.5407989    0.00000       Uiso       1.00
       O13          O  0.3547432  0.3793826  0.5591673    0.00000       Uiso       1.00
       O14          O  0.3793824  0.4022176  0.5591673    0.00000       Uiso       1.00
        B8          B  0.3903232  0.3911309  0.5407989    0.00000       Uiso       1.00
        B9          B  0.3911308  0.3365212  0.5407989    0.00000       Uiso       1.00
       O15          O  0.4022174  0.3547433  0.5591673    0.00000       Uiso       1.00
       O16          O  0.3411788  0.3888785  0.5213438    0.00000       Uiso       1.00
       O17          O  0.3888783  0.3684633  0.5213439    0.00000       Uiso       1.00
       O18          O  0.3684632  0.3411789  0.5213439    0.00000       Uiso       1.00
       Si2         Si  0.3628301  0.3628302  0.5113137    0.00000       Uiso       1.00
      C523          C  0.3933976  0.3933978  0.6030180    0.00000       Uiso       1.00
      C524          C  0.3516673  0.3516674  0.4778248    0.00000       Uiso       1.00
      H181          H  0.3804282  0.4111064  0.6096374    0.00000       Uiso       1.00
      H182          H  0.4111062  0.3952779  0.6096375    0.00000       Uiso       1.00
      H183          H  0.3952778  0.3804284  0.6096375    0.00000       Uiso       1.00
      H184          H  0.3654595  0.3348755  0.4712031    0.00000       Uiso       1.00
      H185          H  0.3480455  0.3654596  0.4712031    0.00000       Uiso       1.00
      H186          H  0.3348754  0.3480456  0.4712031    0.00000       Uiso       1.00
       Si3         Si  0.3822388  0.3822388  0.1949453    0.00000       Uiso       1.00
       B10          B  0.3903264  0.3365244  0.1860502    0.00000       Uiso       1.00
       O19          O  0.3793860  0.3547468  0.1749634    0.00000       Uiso       1.00
       O20          O  0.4022206  0.3793856  0.2224373    0.00000       Uiso       1.00
       B11          B  0.3911335  0.3903260  0.2406594    0.00000       Uiso       1.00
       B12          B  0.3365244  0.3911341  0.1868578    0.00000       Uiso       1.00
       O21          O  0.3547466  0.4022208  0.1977982    0.00000       Uiso       1.00
       O22          O  0.3888813  0.3411817  0.2087177    0.00000       Uiso       1.00
       O23          O  0.3684658  0.3888811  0.2360019    0.00000       Uiso       1.00
       O24          O  0.3411819  0.3684663  0.1883027    0.00000       Uiso       1.00
       Si4         Si  0.3628329  0.3628329  0.2143508    0.00000       Uiso       1.00
      C525          C  0.3934015  0.3934015  0.1837828    0.00000       Uiso       1.00
      C526          C  0.3516697  0.3516698  0.2255138    0.00000       Uiso       1.00
      H187          H  0.4111103  0.3804322  0.1819026    0.00000       Uiso       1.00
      H188          H  0.3952817  0.4111101  0.1967520    0.00000       Uiso       1.00
      H189          H  0.3804324  0.3952819  0.1660742    0.00000       Uiso       1.00
      H190          H  0.3348776  0.3654618  0.2291357    0.00000       Uiso       1.00
      H191          H  0.3654616  0.3480477  0.2423057    0.00000       Uiso       1.00
      H192          H  0.3480479  0.3348778  0.2117218    0.00000       Uiso       1.00
      C527          C  0.9624915  0.7960383  0.6344959    0.00000       Uiso       1.00
      C528          C  0.9635730  0.8166306  0.6549379    0.00000       Uiso       1.00
      C529          C  0.9849327  0.8172851  0.6745579    0.00000       Uiso       1.00
      C530          C  0.9853598  0.8376371  0.6953480    0.00000       Uiso       1.00
      C531          C  0.9640852  0.8573225  0.6975287    0.00000       Uiso       1.00
      C532          C  0.9426784  0.8561252  0.6776648    0.00000       Uiso       1.00
      C533          C  0.9423510  0.8368841  0.6557393    0.00000       Uiso       1.00
       O25          O  0.9813207  0.7744454  0.6312156    0.00000       Uiso       1.00
      H193          H  0.0013319  0.8019145  0.6736838    0.00000       Uiso       1.00
      H194          H  0.0024636  0.8375490  0.7096567    0.00000       Uiso       1.00
      H195          H  0.9258391  0.8695042  0.6797262    0.00000       Uiso       1.00
      C534          C  0.7960702  0.9427087  0.6146812    0.00000       Uiso       1.00
      C535          C  0.8166689  0.9222717  0.6135969    0.00000       Uiso       1.00
      C536          C  0.8173242  0.9026440  0.5922421    0.00000       Uiso       1.00
      C537          C  0.8376765  0.8818530  0.5918210    0.00000       Uiso       1.00
      C538          C  0.8573590  0.8796754  0.6130974    0.00000       Uiso       1.00
      C539          C  0.8561630  0.8995536  0.6344964    0.00000       Uiso       1.00
      C540          C  0.8369234  0.9214796  0.6348161    0.00000       Uiso       1.00
       O26          O  0.7744680  0.9459718  0.5958583    0.00000       Uiso       1.00
      H196          H  0.8019522  0.9035055  0.5758439    0.00000       Uiso       1.00
      H197          H  0.8375848  0.8675393  0.5747198    0.00000       Uiso       1.00
      H198          H  0.8695342  0.8975059  0.6513400    0.00000       Uiso       1.00
      C541          C  0.9427083  0.9624835  0.7811176    0.00000       Uiso       1.00
      C542          C  0.9222816  0.9635730  0.7605155    0.00000       Uiso       1.00
      C543          C  0.9026724  0.9849393  0.7598568    0.00000       Uiso       1.00
      C544          C  0.8818881  0.9853760  0.7394968    0.00000       Uiso       1.00
      C545          C  0.8797048  0.9641033  0.7198085    0.00000       Uiso       1.00
      C546          C  0.8995663  0.9426908  0.7210065    0.00000       Uiso       1.00
      C547          C  0.9214836  0.9423538  0.7402609    0.00000       Uiso       1.00
       O27          O  0.9459813  0.9813137  0.8027089    0.00000       Uiso       1.00
      H199          H  0.9035507  0.0013314  0.7752378    0.00000       Uiso       1.00
      H200          H  0.8675827  0.0024825  0.7395852    0.00000       Uiso       1.00
      H201          H  0.8975068  0.9258530  0.7076223    0.00000       Uiso       1.00
      C548          C  0.9616063  0.9414491  0.7820962    0.00000       Uiso       1.00
      C549          C  0.9620582  0.9204004  0.7620699    0.00000       Uiso       1.00
      C550          C  0.9816830  0.8990770  0.7629794    0.00000       Uiso       1.00
      C551          C  0.9821945  0.8784437  0.7424728    0.00000       Uiso       1.00
      C552          C  0.9636914  0.8790472  0.7201816    0.00000       Uiso       1.00
      C553          C  0.9443480  0.9008932  0.7195588    0.00000       Uiso       1.00
      C554          C  0.9422874  0.9210704  0.7404713    0.00000       Uiso       1.00
       O28          O  0.9796165  0.9439692  0.8044026    0.00000       Uiso       1.00
      H202          H  0.9966109  0.8984554  0.7797182    0.00000       Uiso       1.00
      H203          H  0.9973209  0.8622164  0.7443492    0.00000       Uiso       1.00
      H204          H  0.9314731  0.9027265  0.7024837    0.00000       Uiso       1.00
      C555          C  0.7951057  0.9616252  0.6357075    0.00000       Uiso       1.00
      C556          C  0.8151404  0.9620833  0.6567489    0.00000       Uiso       1.00
      C557          C  0.8142509  0.9817287  0.6780614    0.00000       Uiso       1.00
      C558          C  0.8347643  0.9822406  0.6986861    0.00000       Uiso       1.00
      C559          C  0.8570454  0.9637132  0.6980886    0.00000       Uiso       1.00
      C560          C  0.8576474  0.9443514  0.6762518    0.00000       Uiso       1.00
      C561          C  0.8367276  0.9422969  0.6560848    0.00000       Uiso       1.00
       O29          O  0.7728025  0.9796389  0.6331865    0.00000       Uiso       1.00
      H205          H  0.7975184  0.9966691  0.6786845    0.00000       Uiso       1.00
      H206          H  0.8328956  0.9973856  0.7149041    0.00000       Uiso       1.00
      H207          H  0.8747129  0.9314570  0.6744069    0.00000       Uiso       1.00
      C562          C  0.9414620  0.7950773  0.6155813    0.00000       Uiso       1.00
      C563          C  0.9204192  0.8151076  0.6151332    0.00000       Uiso       1.00
      C564          C  0.8991113  0.8142178  0.5954847    0.00000       Uiso       1.00
      C565          C  0.8784859  0.8347303  0.5949676    0.00000       Uiso       1.00
      C566          C  0.8790768  0.8570117  0.6135014    0.00000       Uiso       1.00
      C567          C  0.9009095  0.8576117  0.6328745    0.00000       Uiso       1.00
      C568          C  0.9210793  0.8366910  0.6349256    0.00000       Uiso       1.00
       O30          O  0.9439847  0.7727841  0.5975529    0.00000       Uiso       1.00
      H208          H  0.8984976  0.7974840  0.5805429    0.00000       Uiso       1.00
      H209          H  0.8622749  0.8328601  0.5798123    0.00000       Uiso       1.00
      H210          H  0.9027501  0.8746783  0.6457778    0.00000       Uiso       1.00
       B13          B  0.9693567  0.7598177  0.6076894    0.00000       Uiso       1.00
       B14          B  0.7598311  0.9694918  0.6078199    0.00000       Uiso       1.00
       B15          B  0.9694874  0.9693474  0.8173562    0.00000       Uiso       1.00
       Si5         Si  0.0076502  0.3822388  0.1949452    0.00000       Uiso       1.00
       B16          B  0.0363820  0.3903264  0.1860501    0.00000       Uiso       1.00
       O31          O  0.0180136  0.3793860  0.1749634    0.00000       Uiso       1.00
       O32          O  0.0180131  0.4022205  0.2224372    0.00000       Uiso       1.00
       B17          B  0.0363815  0.3911335  0.2406593    0.00000       Uiso       1.00
       B18          B  0.0363820  0.3365243  0.1868577    0.00000       Uiso       1.00
       O33          O  0.0180134  0.3547465  0.1977981    0.00000       Uiso       1.00
       O34          O  0.0558371  0.3888812  0.2087176    0.00000       Uiso       1.00
       O35          O  0.0558368  0.3684658  0.2360018    0.00000       Uiso       1.00
       O36          O  0.0558372  0.3411818  0.1883026    0.00000       Uiso       1.00
       Si6         Si  0.0658672  0.3628328  0.2143507    0.00000       Uiso       1.00
      C569          C  0.9741627  0.3934015  0.1837827    0.00000       Uiso       1.00
      C570          C  0.0993564  0.3516696  0.2255137    0.00000       Uiso       1.00
      H211          H  0.9675431  0.4111102  0.1819025    0.00000       Uiso       1.00
      H212          H  0.9675429  0.3952816  0.1967519    0.00000       Uiso       1.00
      H213          H  0.9675433  0.3804323  0.1660741    0.00000       Uiso       1.00
      H214          H  0.1059781  0.3348776  0.2291356    0.00000       Uiso       1.00
      H215          H  0.1059780  0.3654616  0.2423056    0.00000       Uiso       1.00
      H216          H  0.1059783  0.3480479  0.2117217    0.00000       Uiso       1.00
      C571          C  0.9426766  0.7960346  0.1240315    0.00000       Uiso       1.00
      C572          C  0.9222344  0.8166270  0.1252634    0.00000       Uiso       1.00
      C573          C  0.9026141  0.8172817  0.1276576    0.00000       Uiso       1.00
      C574          C  0.8818239  0.8376338  0.1276469    0.00000       Uiso       1.00
      C575          C  0.8796431  0.8573194  0.1238770    0.00000       Uiso       1.00
      C576          C  0.8995073  0.8561218  0.1211367    0.00000       Uiso       1.00
      C577          C  0.9214329  0.8368806  0.1234935    0.00000       Uiso       1.00
       O37          O  0.9459568  0.7744416  0.1245479    0.00000       Uiso       1.00
      H217          H  0.9034882  0.8019111  0.1295606    0.00000       Uiso       1.00
      H218          H  0.8675150  0.8375461  0.1303543    0.00000       Uiso       1.00
      H219          H  0.8974460  0.8695009  0.1156151    0.00000       Uiso       1.00
      C578          C  0.9624913  0.9427047  0.1240948    0.00000       Uiso       1.00
      C579          C  0.9635758  0.9222679  0.1253410    0.00000       Uiso       1.00
      C580          C  0.9849306  0.9026399  0.1277233    0.00000       Uiso       1.00
      C581          C  0.9853517  0.8818489  0.1277055    0.00000       Uiso       1.00
      C582          C  0.9640751  0.8796715  0.1239343    0.00000       Uiso       1.00
      C583          C  0.9426760  0.8995499  0.1212177    0.00000       Uiso       1.00
      C584          C  0.9423563  0.9214759  0.1235844    0.00000       Uiso       1.00
       O38          O  0.9813144  0.9459678  0.1245786    0.00000       Uiso       1.00
      H220          H  0.0013288  0.9035012  0.1296105    0.00000       Uiso       1.00
      H221          H  0.0024528  0.8675350  0.1304011    0.00000       Uiso       1.00
      H222          H  0.9258324  0.8975024  0.1156978    0.00000       Uiso       1.00
      C585          C  0.7960535  0.9624811  0.1240730    0.00000       Uiso       1.00
      C586          C  0.8166557  0.9635704  0.1253377    0.00000       Uiso       1.00
      C587          C  0.8173144  0.9849367  0.1277535    0.00000       Uiso       1.00
      C588          C  0.8376746  0.9853731  0.1277657    0.00000       Uiso       1.00
      C589          C  0.8573631  0.9641004  0.1239978    0.00000       Uiso       1.00
      C590          C  0.8561651  0.9426879  0.1212489    0.00000       Uiso       1.00
      C591          C  0.8369104  0.9423510  0.1235749    0.00000       Uiso       1.00
       O39          O  0.7744619  0.9813115  0.1245851    0.00000       Uiso       1.00
      H223          H  0.8019333  0.0013288  0.1296434    0.00000       Uiso       1.00
      H224          H  0.8375862  0.0024796  0.1304788    0.00000       Uiso       1.00
      H225          H  0.8695496  0.9258500  0.1157358    0.00000       Uiso       1.00
      C592          C  0.7950749  0.9414467  0.1209579    0.00000       Uiso       1.00
      C593          C  0.8151013  0.9203979  0.1203872    0.00000       Uiso       1.00
      C594          C  0.8141918  0.8990745  0.1177792    0.00000       Uiso       1.00
      C595          C  0.8346986  0.8784410  0.1181639    0.00000       Uiso       1.00
      C596          C  0.8569900  0.8790443  0.1225552    0.00000       Uiso       1.00
      C597          C  0.8576127  0.9008902  0.1256805    0.00000       Uiso       1.00
      C598          C  0.8367002  0.9210677  0.1228850    0.00000       Uiso       1.00
       O40          O  0.7727683  0.9439671  0.1191821    0.00000       Uiso       1.00
      H226          H  0.7974529  0.8984531  0.1153468    0.00000       Uiso       1.00
      H227          H  0.8328223  0.8622137  0.1151864    0.00000       Uiso       1.00
      H228          H  0.8746880  0.9027233  0.1317138    0.00000       Uiso       1.00
      C599          C  0.9414650  0.9616215  0.1210209    0.00000       Uiso       1.00
      C600          C  0.9204234  0.9620798  0.1204725    0.00000       Uiso       1.00
      C601          C  0.8991108  0.9817255  0.1179161    0.00000       Uiso       1.00
      C602          C  0.8784858  0.9822375  0.1183169    0.00000       Uiso       1.00
      C603          C  0.8790832  0.9637100  0.1226679    0.00000       Uiso       1.00
      C604          C  0.9009203  0.9443481  0.1257449    0.00000       Uiso       1.00
      C605          C  0.9210874  0.9422934  0.1229373    0.00000       Uiso       1.00
       O41          O  0.9439859  0.9796352  0.1192523    0.00000       Uiso       1.00
      H229          H  0.8984876  0.9966658  0.1155008    0.00000       Uiso       1.00
      H230          H  0.8622676  0.9973826  0.1153753    0.00000       Uiso       1.00
      H231          H  0.9027650  0.9314536  0.1317607    0.00000       Uiso       1.00
      C606          C  0.9615914  0.7950734  0.1209553    0.00000       Uiso       1.00
      C607          C  0.9620395  0.8151038  0.1203910    0.00000       Uiso       1.00
      C608          C  0.9816881  0.8142138  0.1178415    0.00000       Uiso       1.00
      C609          C  0.9822053  0.8347262  0.1182457    0.00000       Uiso       1.00
      C610          C  0.9636712  0.8570077  0.1225843    0.00000       Uiso       1.00
      C611          C  0.9442979  0.8576080  0.1256441    0.00000       Uiso       1.00
      C612          C  0.9422469  0.8366873  0.1228423    0.00000       Uiso       1.00
       O42          O  0.9796199  0.7727801  0.1192130    0.00000       Uiso       1.00
      H232          H  0.9966301  0.7974800  0.1154358    0.00000       Uiso       1.00
      H233          H  0.9973606  0.8328560  0.1153197    0.00000       Uiso       1.00
      H234          H  0.9313945  0.8746746  0.1316479    0.00000       Uiso       1.00
       B19          B  0.9694833  0.7598138  0.1214821    0.00000       Uiso       1.00
       B20          B  0.9693528  0.9694878  0.1215003    0.00000       Uiso       1.00
       B21          B  0.7598146  0.9693454  0.1214778    0.00000       Uiso       1.00
       Si7         Si  0.3822303  0.0076419  0.1949370    0.00000       Uiso       1.00
       B22          B  0.3903175  0.0363732  0.2406510    0.00000       Uiso       1.00
       O43          O  0.3793771  0.0180048  0.2224289    0.00000       Uiso       1.00
       O44          O  0.4022124  0.0180051  0.1977899    0.00000       Uiso       1.00
       B23          B  0.3911256  0.0363737  0.1868494    0.00000       Uiso       1.00
       B24          B  0.3365159  0.0363737  0.1860418    0.00000       Uiso       1.00
       O45          O  0.3547383  0.0180053  0.1749551    0.00000       Uiso       1.00
       O46          O  0.3888726  0.0558285  0.2359936    0.00000       Uiso       1.00
       O47          O  0.3684578  0.0558289  0.1882944    0.00000       Uiso       1.00
       O48          O  0.3411732  0.0558287  0.2087094    0.00000       Uiso       1.00
       Si8         Si  0.3628244  0.0658589  0.2143425    0.00000       Uiso       1.00
      C613          C  0.3933930  0.9741547  0.1837744    0.00000       Uiso       1.00
      C614          C  0.3516612  0.0993481  0.2255055    0.00000       Uiso       1.00
      H235          H  0.4111016  0.9675350  0.1967437    0.00000       Uiso       1.00
      H236          H  0.3952734  0.9675353  0.1660659    0.00000       Uiso       1.00
      H237          H  0.3804237  0.9675351  0.1818942    0.00000       Uiso       1.00
      H238          H  0.3348693  0.1059700  0.2117134    0.00000       Uiso       1.00
      H239          H  0.3654533  0.1059698  0.2291273    0.00000       Uiso       1.00
      H240          H  0.3480392  0.1059697  0.2422973    0.00000       Uiso       1.00
