data_72
_audit_creation_date              0000-00-00
_audit_creation_method            'LanYouShi'
_symmetry_space_group_name_H-M    'P1'
_cell_length_a                    68.1961975
_cell_length_b                    68.1961975
_cell_length_c                    68.1967010
_cell_angle_alpha                 120.0001984
_cell_angle_beta                  59.9998016
_cell_angle_gamma                 120.0003967
loop_
_atom_site_label
_atom_site_type_symbol
_atom_site_fract_x
_atom_site_fract_y
_atom_site_fract_z
_atom_site_U_iso_or_equiv
_atom_site_adp_type
_atom_site_occupancy
        C1          C  0.2669882  0.4047259  0.5424632    0.00000       Uiso       1.00
        C2          C  0.2794595  0.3924136  0.5406993    0.00000       Uiso       1.00
        C3          C  0.3042907  0.4029073  0.5369284    0.00000       Uiso       1.00
        C4          C  0.2794597  0.4277457  0.5406995    0.00000       Uiso       1.00
        C5          C  0.3042898  0.4382894  0.5368246    0.00000       Uiso       1.00
        C6          C  0.3171528  0.4260101  0.5348130    0.00000       Uiso       1.00
        H1          H  0.5440089  0.6864711  0.6072497    0.00000       Uiso       1.00
        H2          H  0.2695581  0.4380685  0.5421583    0.00000       Uiso       1.00
        C7          C  0.5952712  0.4575346  0.5952720    0.00000       Uiso       1.00
        C8          C  0.5722514  0.4592985  0.6075842    0.00000       Uiso       1.00
        C9          C  0.5617079  0.4631734  0.5971729    0.00000       Uiso       1.00
       C10          C  0.6075836  0.4592988  0.5722526    0.00000       Uiso       1.00
       C11          C  0.5970899  0.4630693  0.5616859    0.00000       Uiso       1.00
       C12          C  0.5739872  0.4651847  0.5740421    0.00000       Uiso       1.00
        H3          H  0.3135269  0.3927481  0.5352091    0.00000       Uiso       1.00
        H4          H  0.5619286  0.4578396  0.6263497    0.00000       Uiso       1.00
       C13          C  0.5952726  0.7330103  0.5952737    0.00000       Uiso       1.00
       C14          C  0.6075850  0.7205391  0.5722542    0.00000       Uiso       1.00
       C15          C  0.5971738  0.6957089  0.5617107    0.00000       Uiso       1.00
       C16          C  0.5722528  0.7205389  0.6075858    0.00000       Uiso       1.00
       C17          C  0.5616857  0.6957077  0.5970917    0.00000       Uiso       1.00
       C18          C  0.5740426  0.6828460  0.5739895    0.00000       Uiso       1.00
        H5          H  0.5352125  0.4559912  0.3135302    0.00000       Uiso       1.00
        H6          H  0.6263508  0.7304409  0.5619316    0.00000       Uiso       1.00
       C19          C  0.5424640  0.4047278  0.2669914    0.00000       Uiso       1.00
       C20          C  0.5407001  0.4277475  0.2794627    0.00000       Uiso       1.00
       C21          C  0.5369303  0.4383144  0.3042938    0.00000       Uiso       1.00
       C22          C  0.5406999  0.3924153  0.2794625    0.00000       Uiso       1.00
       C23          C  0.5368248  0.4028264  0.3042923    0.00000       Uiso       1.00
       C24          C  0.5348143  0.4259576  0.3171553    0.00000       Uiso       1.00
        H7          H  0.6072490  0.4647884  0.5440098    0.00000       Uiso       1.00
       C25          C  0.4999999  0.5000009  0.5000002    0.00000       Uiso       1.00
        H8          H  0.5421586  0.3736496  0.2695608    0.00000       Uiso       1.00
        F1          F  0.2665177  0.3678863  0.5426057    0.00000       Uiso       1.00
        F2          F  0.5426069  0.4412397  0.2665212    0.00000       Uiso       1.00
        F3          F  0.5587607  0.7334805  0.6321128    0.00000       Uiso       1.00
        F4          F  0.6321107  0.4573922  0.5587606    0.00000       Uiso       1.00
        F5          F  0.5352325  0.3890887  0.3167898    0.00000       Uiso       1.00
        F6          F  0.3167872  0.4629331  0.5352334    0.00000       Uiso       1.00
        F7          F  0.5370644  0.4647650  0.6109105    0.00000       Uiso       1.00
        F8          F  0.6109115  0.6832108  0.5370679    0.00000       Uiso       1.00
       C26          C  0.3437705  0.4371499  0.5303613    0.00000       Uiso       1.00
       C27          C  0.3543369  0.4344007  0.5416686    0.00000       Uiso       1.00
       C28          C  0.3792348  0.4447652  0.5374150    0.00000       Uiso       1.00
       C29          C  0.3589214  0.4506165  0.5146708    0.00000       Uiso       1.00
       C30          C  0.3838140  0.4609608  0.5103974    0.00000       Uiso       1.00
       C31          C  0.3944081  0.4582216  0.5216988    0.00000       Uiso       1.00
        H9          H  0.5092063  0.6134285  0.5574377    0.00000       Uiso       1.00
       H10          H  0.3515725  0.4527607  0.5052748    0.00000       Uiso       1.00
       C32          C  0.5628475  0.4696360  0.5630158    0.00000       Uiso       1.00
       C33          C  0.5493836  0.4853290  0.5770213    0.00000       Uiso       1.00
       C34          C  0.5390402  0.4896033  0.5667467    0.00000       Uiso       1.00
       C35          C  0.5655951  0.4583268  0.5383934    0.00000       Uiso       1.00
       C36          C  0.5552311  0.4625812  0.5281139    0.00000       Uiso       1.00
       C37          C  0.5417777  0.4782998  0.5421124    0.00000       Uiso       1.00
       H11          H  0.3865747  0.4425394  0.5467614    0.00000       Uiso       1.00
       H12          H  0.5472421  0.4947271  0.5959097    0.00000       Uiso       1.00
       C38          C  0.5630166  0.6562287  0.5628495    0.00000       Uiso       1.00
       C39          C  0.5770207  0.6410766  0.5493925    0.00000       Uiso       1.00
       C40          C  0.5667450  0.6161841  0.5390480    0.00000       Uiso       1.00
       C41          C  0.5383959  0.6456641  0.5655883    0.00000       Uiso       1.00
       C42          C  0.5281160  0.6207665  0.5552220    0.00000       Uiso       1.00
       C43          C  0.5421133  0.6055923  0.5417755    0.00000       Uiso       1.00
       H13          H  0.5467824  0.4907943  0.3865719    0.00000       Uiso       1.00
       H14          H  0.5959079  0.6484247  0.5472560    0.00000       Uiso       1.00
       C44          C  0.5303631  0.4369832  0.3437724    0.00000       Uiso       1.00
       C45          C  0.5416784  0.4616042  0.3543377    0.00000       Uiso       1.00
       C46          C  0.5374277  0.4718839  0.3792349    0.00000       Uiso       1.00
       C47          C  0.5146665  0.4229779  0.3589237    0.00000       Uiso       1.00
       C48          C  0.5103951  0.4332532  0.3838159    0.00000       Uiso       1.00
       C49          C  0.5217051  0.4578855  0.3944086    0.00000       Uiso       1.00
       H15          H  0.5574550  0.4532351  0.5092024    0.00000       Uiso       1.00
       H16          H  0.5052657  0.4040902  0.3515755    0.00000       Uiso       1.00
        F9          F  0.3390817  0.4208335  0.5588912    0.00000       Uiso       1.00
       F10          F  0.5589080  0.4771370  0.3390815    0.00000       Uiso       1.00
       F11          F  0.5228649  0.6609217  0.5791450    0.00000       Uiso       1.00
       F12          F  0.5791606  0.4411027  0.5228596    0.00000       Uiso       1.00
       F13          F  0.4930312  0.4177099  0.3990437    0.00000       Uiso       1.00
       F14          F  0.3990381  0.4743726  0.4930377    0.00000       Uiso       1.00
       F15          F  0.5256352  0.5069690  0.5822932    0.00000       Uiso       1.00
       F16          F  0.5822865  0.6009551  0.5256462    0.00000       Uiso       1.00
       C50          C  0.4210946  0.4691833  0.5170010    0.00000       Uiso       1.00
       C51          C  0.4338416  0.4570189  0.5153005    0.00000       Uiso       1.00
       C52          C  0.4588243  0.4670168  0.5104331    0.00000       Uiso       1.00
       C53          C  0.4342268  0.4916386  0.5135383    0.00000       Uiso       1.00
       C54          C  0.4592024  0.5016175  0.5086560    0.00000       Uiso       1.00
       C55          C  0.4720170  0.4899586  0.5078185    0.00000       Uiso       1.00
       H17          H  0.4803217  0.5320805  0.5435448    0.00000       Uiso       1.00
       H18          H  0.4251727  0.5015710  0.5145800    0.00000       Uiso       1.00
       C56          C  0.5308165  0.4829972  0.5310850    0.00000       Uiso       1.00
       C57          C  0.5083621  0.4864607  0.5438713    0.00000       Uiso       1.00
       C58          C  0.4983831  0.4913451  0.5337584    0.00000       Uiso       1.00
       C59          C  0.5429807  0.4846974  0.5078741    0.00000       Uiso       1.00
       C60          C  0.5329827  0.4895667  0.4977584    0.00000       Uiso       1.00
       C61          C  0.5100418  0.4921832  0.5101230    0.00000       Uiso       1.00
       H19          H  0.4679217  0.4564512  0.5082057    0.00000       Uiso       1.00
       H20          H  0.4984331  0.4854199  0.5618166    0.00000       Uiso       1.00
       C62          C  0.5310877  0.5789063  0.5308132    0.00000       Uiso       1.00
       C63          C  0.5438745  0.5657743  0.5083594    0.00000       Uiso       1.00
       C64          C  0.5337604  0.5407985  0.4983818    0.00000       Uiso       1.00
       C65          C  0.5078771  0.5661598  0.5429774    0.00000       Uiso       1.00
       C66          C  0.4977592  0.5411773  0.5329806    0.00000       Uiso       1.00
       C67          C  0.5101234  0.5279845  0.5100403    0.00000       Uiso       1.00
       H21          H  0.5082152  0.5196782  0.4679219    0.00000       Uiso       1.00
       H22          H  0.5618193  0.5748286  0.4984269    0.00000       Uiso       1.00
       C68          C  0.5170062  0.4689107  0.4210949    0.00000       Uiso       1.00
       C69          C  0.5153092  0.4921229  0.4338405    0.00000       Uiso       1.00
       C70          C  0.5104389  0.5022407  0.4588236    0.00000       Uiso       1.00
       C71          C  0.5135353  0.4561221  0.4342289    0.00000       Uiso       1.00
       C72          C  0.5086491  0.4662369  0.4592050    0.00000       Uiso       1.00
       C73          C  0.5078167  0.4898752  0.4720181    0.00000       Uiso       1.00
       H23          H  0.5435473  0.4917973  0.4803241    0.00000       Uiso       1.00
       H24          H  0.5145730  0.4381753  0.4251775    0.00000       Uiso       1.00
       F17          F  0.4210944  0.4326508  0.5175807    0.00000       Uiso       1.00
       F18          F  0.5176013  0.5060257  0.4210881    0.00000       Uiso       1.00
       F19          F  0.4939770  0.5789107  0.5673437    0.00000       Uiso       1.00
       F20          F  0.5673500  0.4824201  0.4939736    0.00000       Uiso       1.00
       F21          F  0.5039401  0.4512541  0.4721691    0.00000       Uiso       1.00
       F22          F  0.4721644  0.5248621  0.5039600    0.00000       Uiso       1.00
       F23          F  0.4751427  0.4960497  0.5487381    0.00000       Uiso       1.00
       F24          F  0.5487423  0.5278382  0.4751392    0.00000       Uiso       1.00
       C74          C  0.1724559  0.0347195  0.2669954    0.00000       Uiso       1.00
       C75          C  0.1847681  0.0364833  0.2794666    0.00000       Uiso       1.00
       C76          C  0.1742743  0.0402542  0.3042976    0.00000       Uiso       1.00
       C77          C  0.1494361  0.0364833  0.2794666    0.00000       Uiso       1.00
       C78          C  0.1388924  0.0403582  0.3042964    0.00000       Uiso       1.00
       C79          C  0.1511716  0.0423697  0.3171594    0.00000       Uiso       1.00
       H25          H  0.8907095  0.9699320  0.5440122    0.00000       Uiso       1.00
       H26          H  0.1391135  0.0350246  0.2695650    0.00000       Uiso       1.00
       C80          C  0.1196438  0.9819080  0.5952754    0.00000       Uiso       1.00
       C81          C  0.1178799  0.9695958  0.5722559    0.00000       Uiso       1.00
       C82          C  0.1140053  0.9800074  0.5617123    0.00000       Uiso       1.00
       C83          C  0.1178810  0.0049278  0.6075878    0.00000       Uiso       1.00
       C84          C  0.1141106  0.0154948  0.5970941    0.00000       Uiso       1.00
       C85          C  0.1119953  0.0031386  0.5739915    0.00000       Uiso       1.00
       H27          H  0.1844334  0.0419733  0.3135338    0.00000       Uiso       1.00
       H28          H  0.1193386  0.9508301  0.5619331    0.00000       Uiso       1.00
       C86          C  0.8441703  0.9819081  0.5952753    0.00000       Uiso       1.00
       C87          C  0.8566428  0.0049280  0.6075877    0.00000       Uiso       1.00
       C88          C  0.8814729  0.0154715  0.5971767    0.00000       Uiso       1.00
       C89          C  0.8566418  0.9695960  0.5722558    0.00000       Uiso       1.00
       C90          C  0.8814729  0.9800901  0.5616890    0.00000       Uiso       1.00
       C91          C  0.8943357  0.0031926  0.5740457    0.00000       Uiso       1.00
       H29          H  0.1211921  0.2636542  0.5352173    0.00000       Uiso       1.00
       H30          H  0.8467410  0.0152507  0.6263533    0.00000       Uiso       1.00
       C92          C  0.1724557  0.3101933  0.5424691    0.00000       Uiso       1.00
       C93          C  0.1494360  0.2977220  0.5407051    0.00000       Uiso       1.00
       C94          C  0.1388688  0.2728907  0.5369353    0.00000       Uiso       1.00
       C95          C  0.1847679  0.2977220  0.5407051    0.00000       Uiso       1.00
       C96          C  0.1743566  0.2728919  0.5368300    0.00000       Uiso       1.00
       C97          C  0.1512254  0.2600289  0.5348194    0.00000       Uiso       1.00
       H31          H  0.1123917  0.0331710  0.6072531    0.00000       Uiso       1.00
       C98          C  0.0771806  0.0771822  0.5000046    0.00000       Uiso       1.00
       H32          H  0.2035336  0.3076237  0.5421640    0.00000       Uiso       1.00
       F25          F  0.2092952  0.0345768  0.2665250    0.00000       Uiso       1.00
       F26          F  0.1359440  0.3106637  0.5426118    0.00000       Uiso       1.00
       F27          F  0.8437000  0.9450688  0.5587637    0.00000       Uiso       1.00
       F28          F  0.1197875  0.0184198  0.6321148    0.00000       Uiso       1.00
       F29          F  0.1880942  0.2603941  0.5352378    0.00000       Uiso       1.00
       F30          F  0.1142488  0.0419495  0.3167937    0.00000       Uiso       1.00
       F31          F  0.1124137  0.9662698  0.5370691    0.00000       Uiso       1.00
       F32          F  0.8939711  0.0401144  0.6109144    0.00000       Uiso       1.00
       C99          C  0.1400318  0.0468213  0.3437768    0.00000       Uiso       1.00
      C100          C  0.1427807  0.0355138  0.3543432    0.00000       Uiso       1.00
      C101          C  0.1324162  0.0397673  0.3792409    0.00000       Uiso       1.00
      C102          C  0.1265653  0.0625120  0.3589276    0.00000       Uiso       1.00
      C103          C  0.1162210  0.0667853  0.3838199    0.00000       Uiso       1.00
      C104          C  0.1189600  0.0554837  0.3944139    0.00000       Uiso       1.00
       H33          H  0.9637533  0.0197446  0.5092103    0.00000       Uiso       1.00
       H34          H  0.1244213  0.0719081  0.3515787    0.00000       Uiso       1.00
      C105          C  0.1075441  0.0141651  0.5628520    0.00000       Uiso       1.00
      C106          C  0.0918512  0.0001596  0.5493881    0.00000       Uiso       1.00
      C107          C  0.0875771  0.0104345  0.5390447    0.00000       Uiso       1.00
      C108          C  0.1188535  0.0387877  0.5655996    0.00000       Uiso       1.00
      C109          C  0.1145993  0.0490674  0.5552356    0.00000       Uiso       1.00
      C110          C  0.0988807  0.0350690  0.5417823    0.00000       Uiso       1.00
       H35          H  0.1346418  0.0304207  0.3865807    0.00000       Uiso       1.00
       H36          H  0.0824519  0.9812709  0.5472466    0.00000       Uiso       1.00
      C111          C  0.9209531  0.0143326  0.5630200    0.00000       Uiso       1.00
      C112          C  0.9361052  0.0277896  0.5770241    0.00000       Uiso       1.00
      C113          C  0.9609978  0.0381342  0.5667487    0.00000       Uiso       1.00
      C114          C  0.9315177  0.0115939  0.5383996    0.00000       Uiso       1.00
      C115          C  0.9564154  0.0219602  0.5281199    0.00000       Uiso       1.00
      C116          C  0.9715896  0.0354067  0.5421172    0.00000       Uiso       1.00
       H37          H  0.0863882  0.1906116  0.5467870    0.00000       Uiso       1.00
       H38          H  0.9287570  0.0299261  0.5959111    0.00000       Uiso       1.00
      C117          C  0.1401997  0.2334115  0.5303681    0.00000       Uiso       1.00
      C118          C  0.1155785  0.2228462  0.5416831    0.00000       Uiso       1.00
      C119          C  0.1052986  0.1979488  0.5374324    0.00000       Uiso       1.00
      C120          C  0.1542048  0.2182600  0.5146717    0.00000       Uiso       1.00
      C121          C  0.1439293  0.1933676  0.5104002    0.00000       Uiso       1.00
      C122          C  0.1192969  0.1827748  0.5217100    0.00000       Uiso       1.00
       H39          H  0.1239457  0.0679792  0.5574597    0.00000       Uiso       1.00
       H40          H  0.1730925  0.2256083  0.5052711    0.00000       Uiso       1.00
       F33          F  0.1563477  0.0182910  0.3390881    0.00000       Uiso       1.00
       F34          F  0.1000460  0.2381026  0.5589126    0.00000       Uiso       1.00
       F35          F  0.9162592  0.9980372  0.5228686    0.00000       Uiso       1.00
       F36          F  0.1360777  0.0543216  0.5791651    0.00000       Uiso       1.00
       F37          F  0.1594723  0.1781396  0.4930365    0.00000       Uiso       1.00
       F38          F  0.1028094  0.0841453  0.3990438    0.00000       Uiso       1.00
       F39          F  0.0702103  0.9948879  0.5256397    0.00000       Uiso       1.00
       F40          F  0.9762267  0.0515360  0.5822901    0.00000       Uiso       1.00
      C123          C  0.1079982  0.0601815  0.4211002    0.00000       Uiso       1.00
      C124          C  0.1201625  0.0618818  0.4338472    0.00000       Uiso       1.00
      C125          C  0.1101646  0.0667492  0.4588296    0.00000       Uiso       1.00
      C126          C  0.0855431  0.0636443  0.4342321    0.00000       Uiso       1.00
      C127          C  0.0755641  0.0685265  0.4592075    0.00000       Uiso       1.00
      C128          C  0.0872228  0.0693639  0.4720221    0.00000       Uiso       1.00
       H41          H  0.0451008  0.0336373  0.4803265    0.00000       Uiso       1.00
       H42          H  0.0756107  0.0626027  0.4251781    0.00000       Uiso       1.00
      C129          C  0.0941836  0.0460966  0.5308211    0.00000       Uiso       1.00
      C130          C  0.0907201  0.0333103  0.5083669    0.00000       Uiso       1.00
      C131          C  0.0858359  0.0434235  0.4983879    0.00000       Uiso       1.00
      C132          C  0.0924836  0.0693078  0.5429853    0.00000       Uiso       1.00
      C133          C  0.0876145  0.0794237  0.5329874    0.00000       Uiso       1.00
      C134          C  0.0849981  0.0670592  0.5100466    0.00000       Uiso       1.00
       H43          H  0.1207301  0.0689765  0.4679269    0.00000       Uiso       1.00
       H44          H  0.0917607  0.0153648  0.4984381    0.00000       Uiso       1.00
      C135          C  0.9982756  0.0463691  0.5310917    0.00000       Uiso       1.00
      C136          C  0.0114073  0.0688231  0.5438786    0.00000       Uiso       1.00
      C137          C  0.0363830  0.0788007  0.5337647    0.00000       Uiso       1.00
      C138          C  0.0110215  0.0342048  0.5078815    0.00000       Uiso       1.00
      C139          C  0.0360041  0.0442016  0.4977637    0.00000       Uiso       1.00
      C140          C  0.0491970  0.0671421  0.5101280    0.00000       Uiso       1.00
       H45          H  0.0575037  0.1092610  0.5082198    0.00000       Uiso       1.00
       H46          H  0.0023530  0.0787556  0.5618232    0.00000       Uiso       1.00
      C141          C  0.1082715  0.1560882  0.5170111    0.00000       Uiso       1.00
      C142          C  0.0850593  0.1433427  0.5153139    0.00000       Uiso       1.00
      C143          C  0.0749413  0.1183593  0.5104436    0.00000       Uiso       1.00
      C144          C  0.1210599  0.1429540  0.5135403    0.00000       Uiso       1.00
      C145          C  0.1109448  0.1179776  0.5086541    0.00000       Uiso       1.00
      C146          C  0.0873065  0.1051646  0.5078216    0.00000       Uiso       1.00
       H47          H  0.0853842  0.0968582  0.5435519    0.00000       Uiso       1.00
       H48          H  0.1390066  0.1520055  0.5145781    0.00000       Uiso       1.00
       F41          F  0.1445306  0.0596016  0.4211002    0.00000       Uiso       1.00
       F42          F  0.0711567  0.1560953  0.5176060    0.00000       Uiso       1.00
       F43          F  0.9982709  0.0098384  0.4939814    0.00000       Uiso       1.00
       F44          F  0.0947609  0.0832083  0.5673544    0.00000       Uiso       1.00
       F45          F  0.1259274  0.1050133  0.5039452    0.00000       Uiso       1.00
       F46          F  0.0523196  0.0732227  0.4721692    0.00000       Uiso       1.00
       F47          F  0.0811313  0.0284437  0.4751477    0.00000       Uiso       1.00
       F48          F  0.0493434  0.1020434  0.5487466    0.00000       Uiso       1.00
      C147          C  0.5424641  0.3101893  0.1724530    0.00000       Uiso       1.00
      C148          C  0.5407000  0.2977179  0.1847651    0.00000       Uiso       1.00
      C149          C  0.5369289  0.2728866  0.1742714    0.00000       Uiso       1.00
      C150          C  0.5407001  0.2977181  0.1494334    0.00000       Uiso       1.00
      C151          C  0.5368251  0.2728880  0.1388897    0.00000       Uiso       1.00
      C152          C  0.5348134  0.2600248  0.1511688    0.00000       Uiso       1.00
       H49          H  0.6072500  0.0331700  0.8907086    0.00000       Uiso       1.00
       H50          H  0.5421590  0.3076199  0.1391108    0.00000       Uiso       1.00
      C153          C  0.5952703  0.9819046  0.1196424    0.00000       Uiso       1.00
      C154          C  0.6075837  0.0049245  0.1178787    0.00000       Uiso       1.00
      C155          C  0.5971724  0.0154684  0.1140040    0.00000       Uiso       1.00
      C156          C  0.5722506  0.9695923  0.1178784    0.00000       Uiso       1.00
      C157          C  0.5616840  0.9800861  0.1141081    0.00000       Uiso       1.00
      C158          C  0.5740414  0.0031891  0.1119928    0.00000       Uiso       1.00
       H51          H  0.5352096  0.2636503  0.1844303    0.00000       Uiso       1.00
       H52          H  0.6263495  0.0152473  0.1193375    0.00000       Uiso       1.00
      C159          C  0.5952725  0.9819065  0.8441698    0.00000       Uiso       1.00
      C160          C  0.5722528  0.9695941  0.8566409    0.00000       Uiso       1.00
      C161          C  0.5617092  0.9800051  0.8814709    0.00000       Uiso       1.00
      C162          C  0.6075858  0.0049263  0.8566411    0.00000       Uiso       1.00
      C163          C  0.5970918  0.0154932  0.8814721    0.00000       Uiso       1.00
      C164          C  0.5739893  0.0031363  0.8943337    0.00000       Uiso       1.00
       H53          H  0.3135277  0.0419655  0.1211881    0.00000       Uiso       1.00
       H54          H  0.5619299  0.9508283  0.8467392    0.00000       Uiso       1.00
      C165          C  0.2669885  0.0347136  0.1724511    0.00000       Uiso       1.00
      C166          C  0.2794599  0.0364777  0.1494317    0.00000       Uiso       1.00
      C167          C  0.3042911  0.0402475  0.1388647    0.00000       Uiso       1.00
      C168          C  0.2794597  0.0364774  0.1847633    0.00000       Uiso       1.00
      C169          C  0.3042897  0.0403525  0.1743522    0.00000       Uiso       1.00
      C170          C  0.3171528  0.0423633  0.1512213    0.00000       Uiso       1.00
       H55          H  0.5440077  0.9699273  0.1123891    0.00000       Uiso       1.00
      C171          C  0.4999993  0.0771777  0.0771781    0.00000       Uiso       1.00
       H56          H  0.2695579  0.0350185  0.2035289    0.00000       Uiso       1.00
       F49          F  0.5426065  0.3106594  0.2092920    0.00000       Uiso       1.00
       F50          F  0.2665183  0.0345711  0.1359397    0.00000       Uiso       1.00
       F51          F  0.6321131  0.0184185  0.8436997    0.00000       Uiso       1.00
       F52          F  0.5587584  0.9450650  0.1197849    0.00000       Uiso       1.00
       F53          F  0.3167873  0.0419446  0.1880897    0.00000       Uiso       1.00
       F54          F  0.5352338  0.2603908  0.1142463    0.00000       Uiso       1.00
       F55          F  0.6109102  0.0401118  0.1124125    0.00000       Uiso       1.00
       F56          F  0.5370662  0.9662673  0.8939688    0.00000       Uiso       1.00
      C172          C  0.5303615  0.2334071  0.1400290    0.00000       Uiso       1.00
      C173          C  0.5416688  0.2228405  0.1427780    0.00000       Uiso       1.00
      C174          C  0.5374151  0.1979426  0.1324135    0.00000       Uiso       1.00
      C175          C  0.5146708  0.2182563  0.1265626    0.00000       Uiso       1.00
      C176          C  0.5103973  0.1933638  0.1162183    0.00000       Uiso       1.00
      C177          C  0.5216987  0.1827695  0.1189574    0.00000       Uiso       1.00
       H57          H  0.5574378  0.0679722  0.9637507    0.00000       Uiso       1.00
       H58          H  0.5052748  0.2256054  0.1244185    0.00000       Uiso       1.00
      C178          C  0.5630150  0.0143289  0.1075417    0.00000       Uiso       1.00
      C179          C  0.5770207  0.0277930  0.0918489    0.00000       Uiso       1.00
      C180          C  0.5667461  0.0381366  0.0875748    0.00000       Uiso       1.00
      C181          C  0.5383925  0.0115813  0.1188508    0.00000       Uiso       1.00
      C182          C  0.5281129  0.0219455  0.1145966    0.00000       Uiso       1.00
      C183          C  0.5421116  0.0353991  0.0988783    0.00000       Uiso       1.00
       H59          H  0.5467615  0.1906025  0.1346392    0.00000       Uiso       1.00
       H60          H  0.5959093  0.0299345  0.0824508    0.00000       Uiso       1.00
      C184          C  0.5628493  0.0141621  0.9209508    0.00000       Uiso       1.00
      C185          C  0.5493921  0.0001578  0.9361026    0.00000       Uiso       1.00
      C186          C  0.5390475  0.0104333  0.9609950    0.00000       Uiso       1.00
      C187          C  0.5655882  0.0387827  0.9315153    0.00000       Uiso       1.00
      C188          C  0.5552220  0.0490625  0.9564127    0.00000       Uiso       1.00
      C189          C  0.5417753  0.0350650  0.9715868    0.00000       Uiso       1.00
       H61          H  0.3865699  0.0303955  0.0863849    0.00000       Uiso       1.00
       H62          H  0.5472545  0.9812705  0.9287545    0.00000       Uiso       1.00
      C190          C  0.3437701  0.0468145  0.1401958    0.00000       Uiso       1.00
      C191          C  0.3543354  0.0354994  0.1155749    0.00000       Uiso       1.00
      C192          C  0.3792328  0.0397501  0.1052952    0.00000       Uiso       1.00
      C193          C  0.3589216  0.0625109  0.1542008    0.00000       Uiso       1.00
      C194          C  0.3838140  0.0667823  0.1439256    0.00000       Uiso       1.00
      C195          C  0.3944068  0.0554725  0.1192934    0.00000       Uiso       1.00
       H63          H  0.5092012  0.0197216  0.1239428    0.00000       Uiso       1.00
       H64          H  0.3515734  0.0719116  0.1730884    0.00000       Uiso       1.00
       F57          F  0.5588917  0.2380955  0.1563450    0.00000       Uiso       1.00
       F58          F  0.3390790  0.0182699  0.1000424    0.00000       Uiso       1.00
       F59          F  0.5791450  0.0543140  0.9162580    0.00000       Uiso       1.00
       F60          F  0.5228574  0.9980156  0.1360748    0.00000       Uiso       1.00
       F61          F  0.3990420  0.0841461  0.1594686    0.00000       Uiso       1.00
       F62          F  0.4930373  0.1781398  0.1028067    0.00000       Uiso       1.00
       F63          F  0.5822927  0.0515418  0.0702093    0.00000       Uiso       1.00
       F64          F  0.5256445  0.9948915  0.9762237    0.00000       Uiso       1.00
      C196          C  0.5170006  0.1560830  0.1079956    0.00000       Uiso       1.00
      C197          C  0.5153001  0.1433357  0.1201597    0.00000       Uiso       1.00
      C198          C  0.5104325  0.1183531  0.1101619    0.00000       Uiso       1.00
      C199          C  0.5135378  0.1429510  0.0855406    0.00000       Uiso       1.00
      C200          C  0.5086554  0.1179754  0.0755617    0.00000       Uiso       1.00
      C201          C  0.5078178  0.1051606  0.0872203    0.00000       Uiso       1.00
       H65          H  0.5435444  0.0968561  0.0450987    0.00000       Uiso       1.00
       H66          H  0.5145796  0.1520053  0.0756083    0.00000       Uiso       1.00
      C202          C  0.5310841  0.0463605  0.0941811    0.00000       Uiso       1.00
      C203          C  0.5438707  0.0688151  0.0907177    0.00000       Uiso       1.00
      C204          C  0.5337577  0.0787942  0.0858335    0.00000       Uiso       1.00
      C205          C  0.5078731  0.0341964  0.0924810    0.00000       Uiso       1.00
      C206          C  0.4977573  0.0441946  0.0876119    0.00000       Uiso       1.00
      C207          C  0.5101221  0.0671355  0.0849955    0.00000       Uiso       1.00
       H67          H  0.5082051  0.1092556  0.1207273    0.00000       Uiso       1.00
       H68          H  0.5618162  0.0787439  0.0917584    0.00000       Uiso       1.00
      C208          C  0.5308129  0.0460904  0.9982725    0.00000       Uiso       1.00
      C209          C  0.5083582  0.0333036  0.0114052    0.00000       Uiso       1.00
      C210          C  0.4983806  0.0434175  0.0363808    0.00000       Uiso       1.00
      C211          C  0.5429767  0.0693009  0.0110197    0.00000       Uiso       1.00
      C212          C  0.5329800  0.0794187  0.0360020    0.00000       Uiso       1.00
      C213          C  0.5100393  0.0670543  0.0491947    0.00000       Uiso       1.00
       H69          H  0.4679207  0.0689628  0.0575012    0.00000       Uiso       1.00
       H70          H  0.4984255  0.0153588  0.0023510    0.00000       Uiso       1.00
      C214          C  0.4210933  0.0601714  0.1082682    0.00000       Uiso       1.00
      C215          C  0.4338390  0.0618686  0.0850563    0.00000       Uiso       1.00
      C216          C  0.4588223  0.0667389  0.0749385    0.00000       Uiso       1.00
      C217          C  0.4342274  0.0636421  0.1210566    0.00000       Uiso       1.00
      C218          C  0.4592038  0.0685282  0.1109418    0.00000       Uiso       1.00
      C219          C  0.4720169  0.0693608  0.0873038    0.00000       Uiso       1.00
       H71          H  0.4803228  0.0336300  0.0853814    0.00000       Uiso       1.00
       H72          H  0.4251759  0.0626042  0.1390031    0.00000       Uiso       1.00
       F65          F  0.5175804  0.1560827  0.1445277    0.00000       Uiso       1.00
       F66          F  0.4210865  0.0595768  0.0711538    0.00000       Uiso       1.00
       F67          F  0.5673438  0.0832011  0.9982681    0.00000       Uiso       1.00
       F68          F  0.4939722  0.0098270  0.0947582    0.00000       Uiso       1.00
       F69          F  0.4721680  0.0732370  0.1259243    0.00000       Uiso       1.00
       F70          F  0.5039592  0.1050137  0.0523173    0.00000       Uiso       1.00
       F71          F  0.5487378  0.1020347  0.0811290    0.00000       Uiso       1.00
       F72          F  0.4751378  0.0284355  0.0493409    0.00000       Uiso       1.00
      C220          C  0.2669839  0.4047218  0.1724471    0.00000       Uiso       1.00
      C221          C  0.2794553  0.4277415  0.1847594    0.00000       Uiso       1.00
      C222          C  0.3042866  0.4383082  0.1742660    0.00000       Uiso       1.00
      C223          C  0.2794553  0.3924096  0.1494276    0.00000       Uiso       1.00
      C224          C  0.3042854  0.4028211  0.1388841    0.00000       Uiso       1.00
      C225          C  0.3171486  0.4259520  0.1511634    0.00000       Uiso       1.00
       H73          H  0.5440060  0.4647847  0.8907049    0.00000       Uiso       1.00
       H74          H  0.2695536  0.3736438  0.1391048    0.00000       Uiso       1.00
      C226          C  0.5952691  0.7330072  0.1196409    0.00000       Uiso       1.00
      C227          C  0.5722494  0.7205358  0.1178769    0.00000       Uiso       1.00
      C228          C  0.5617055  0.6957057  0.1140020    0.00000       Uiso       1.00
      C229          C  0.6075813  0.7205358  0.1178769    0.00000       Uiso       1.00
      C230          C  0.5970873  0.6957046  0.1141063    0.00000       Uiso       1.00
      C231          C  0.5739846  0.6828428  0.1119908    0.00000       Uiso       1.00
       H75          H  0.3135228  0.4559844  0.1844251    0.00000       Uiso       1.00
       H76          H  0.5619267  0.7304375  0.1193357    0.00000       Uiso       1.00
      C232          C  0.5952697  0.4575330  0.8441665    0.00000       Uiso       1.00
      C233          C  0.6075819  0.4592969  0.8566376    0.00000       Uiso       1.00
      C234          C  0.5971708  0.4631724  0.8814676    0.00000       Uiso       1.00
      C235          C  0.5722500  0.4592969  0.8566376    0.00000       Uiso       1.00
      C236          C  0.5616829  0.4630668  0.8814685    0.00000       Uiso       1.00
      C237          C  0.5740395  0.4651829  0.8943303    0.00000       Uiso       1.00
       H77          H  0.5352067  0.3927459  0.1211839    0.00000       Uiso       1.00
       H78          H  0.6263476  0.4578382  0.8467360    0.00000       Uiso       1.00
      C238          C  0.5424580  0.4047218  0.1724470    0.00000       Uiso       1.00
      C239          C  0.5406942  0.3924097  0.1494275    0.00000       Uiso       1.00
      C240          C  0.5369245  0.4029041  0.1388606    0.00000       Uiso       1.00
      C241          C  0.5406941  0.4277415  0.1847594    0.00000       Uiso       1.00
      C242          C  0.5368192  0.4382854  0.1743483    0.00000       Uiso       1.00
      C243          C  0.5348087  0.4260067  0.1512173    0.00000       Uiso       1.00
       H79          H  0.6072462  0.6864683  0.1123873    0.00000       Uiso       1.00
      C244          C  0.4999958  0.4999957  0.0771744    0.00000       Uiso       1.00
       H80          H  0.5421528  0.4380642  0.2035250    0.00000       Uiso       1.00
       F73          F  0.2665136  0.4412335  0.2092864    0.00000       Uiso       1.00
       F74          F  0.5426007  0.3678825  0.1359354    0.00000       Uiso       1.00
       F75          F  0.5587580  0.4573903  0.8436961    0.00000       Uiso       1.00
       F76          F  0.6321084  0.7334775  0.1197836    0.00000       Uiso       1.00
       F77          F  0.5352271  0.4629286  0.1880860    0.00000       Uiso       1.00
       F78          F  0.3167828  0.3890836  0.1142407    0.00000       Uiso       1.00
       F79          F  0.5370621  0.6832083  0.1124102    0.00000       Uiso       1.00
       F80          F  0.6109083  0.4647652  0.8939656    0.00000       Uiso       1.00
      C245          C  0.3437663  0.4369782  0.1400239    0.00000       Uiso       1.00
      C246          C  0.3543329  0.4616013  0.1427731    0.00000       Uiso       1.00
      C247          C  0.3792309  0.4718812  0.1324088    0.00000       Uiso       1.00
      C248          C  0.3589171  0.4229718  0.1265574    0.00000       Uiso       1.00
      C249          C  0.3838096  0.4332468  0.1162134    0.00000       Uiso       1.00
      C250          C  0.3944040  0.4578818  0.1189527    0.00000       Uiso       1.00
       H81          H  0.5092031  0.4532121  0.9637467    0.00000       Uiso       1.00
       H82          H  0.3515679  0.4040825  0.1244132    0.00000       Uiso       1.00
      C251          C  0.5628448  0.6562253  0.1075394    0.00000       Uiso       1.00
      C252          C  0.5493809  0.6410739  0.0918465    0.00000       Uiso       1.00
      C253          C  0.5390373  0.6161813  0.0875721    0.00000       Uiso       1.00
      C254          C  0.5655922  0.6456594  0.1188485    0.00000       Uiso       1.00
      C255          C  0.5552279  0.6207612  0.1145941    0.00000       Uiso       1.00
      C256          C  0.5417745  0.6055877  0.0988756    0.00000       Uiso       1.00
       H83          H  0.3865710  0.4907935  0.1346346    0.00000       Uiso       1.00
       H84          H  0.5472395  0.6484228  0.0824484    0.00000       Uiso       1.00
      C257          C  0.5630134  0.4696342  0.9209473    0.00000       Uiso       1.00
      C258          C  0.5770177  0.4853335  0.9360994    0.00000       Uiso       1.00
      C259          C  0.5667419  0.4896057  0.9609917    0.00000       Uiso       1.00
      C260          C  0.5383928  0.4583170  0.9315116    0.00000       Uiso       1.00
      C261          C  0.5281128  0.4625682  0.9564089    0.00000       Uiso       1.00
      C262          C  0.5421101  0.4782933  0.9715832    0.00000       Uiso       1.00
       H85          H  0.5467774  0.4425554  0.0863811    0.00000       Uiso       1.00
       H86          H  0.5959048  0.4947360  0.9287515    0.00000       Uiso       1.00
      C263          C  0.5303578  0.4371474  0.1401918    0.00000       Uiso       1.00
      C264          C  0.5416731  0.4344068  0.1155710    0.00000       Uiso       1.00
      C265          C  0.5374225  0.4447739  0.1052913    0.00000       Uiso       1.00
      C266          C  0.5146613  0.4506075  0.1541969    0.00000       Uiso       1.00
      C267          C  0.5103901  0.4609532  0.1439216    0.00000       Uiso       1.00
      C268          C  0.5217002  0.4582237  0.1192896    0.00000       Uiso       1.00
       H87          H  0.5574517  0.6134196  0.1239402    0.00000       Uiso       1.00
       H88          H  0.5052605  0.4527462  0.1730844    0.00000       Uiso       1.00
       F81          F  0.3390779  0.4771361  0.1563401    0.00000       Uiso       1.00
       F82          F  0.5589026  0.4208474  0.1000385    0.00000       Uiso       1.00
       F83          F  0.5228618  0.4410849  0.9162540    0.00000       Uiso       1.00
       F84          F  0.5791576  0.6609151  0.1360727    0.00000       Uiso       1.00
       F85          F  0.4930264  0.4743605  0.1594647    0.00000       Uiso       1.00
       F86          F  0.3990336  0.4176992  0.1028018    0.00000       Uiso       1.00
       F87          F  0.5256323  0.6009571  0.0702064    0.00000       Uiso       1.00
       F88          F  0.5822834  0.5069743  0.9762205    0.00000       Uiso       1.00
      C269          C  0.4210905  0.4689086  0.1079912    0.00000       Uiso       1.00
      C270          C  0.4338377  0.4921198  0.1201556    0.00000       Uiso       1.00
      C271          C  0.4588203  0.5022371  0.1101579    0.00000       Uiso       1.00
      C272          C  0.4342226  0.4561228  0.0855362    0.00000       Uiso       1.00
      C273          C  0.4591982  0.4662373  0.0755575    0.00000       Uiso       1.00
      C274          C  0.4720130  0.4898733  0.0872163    0.00000       Uiso       1.00
       H89          H  0.4803179  0.4917828  0.0450949    0.00000       Uiso       1.00
       H90          H  0.4251684  0.4381779  0.0756037    0.00000       Uiso       1.00
      C275          C  0.5308132  0.5789015  0.0941781    0.00000       Uiso       1.00
      C276          C  0.5083587  0.5657699  0.0907145    0.00000       Uiso       1.00
      C277          C  0.4983795  0.5407934  0.0858301    0.00000       Uiso       1.00
      C278          C  0.5429771  0.5661544  0.0924780    0.00000       Uiso       1.00
      C279          C  0.5329789  0.5411711  0.0876087    0.00000       Uiso       1.00
      C280          C  0.5100381  0.5279784  0.0849921    0.00000       Uiso       1.00
       H91          H  0.4679178  0.5196729  0.1207235    0.00000       Uiso       1.00
       H92          H  0.4984300  0.5748273  0.0917552    0.00000       Uiso       1.00
      C281          C  0.5310844  0.4829912  0.9982690    0.00000       Uiso       1.00
      C282          C  0.5438705  0.4864562  0.0114017    0.00000       Uiso       1.00
      C283          C  0.5337563  0.4913401  0.0363772    0.00000       Uiso       1.00
      C284          C  0.5078734  0.4846915  0.0110159    0.00000       Uiso       1.00
      C285          C  0.4977553  0.4895592  0.0359983    0.00000       Uiso       1.00
      C286          C  0.5101195  0.4921758  0.0491910    0.00000       Uiso       1.00
       H93          H  0.5082107  0.4564549  0.0574972    0.00000       Uiso       1.00
       H94          H  0.5618153  0.4854141  0.0023476    0.00000       Uiso       1.00
      C287          C  0.5170015  0.4691862  0.1082644    0.00000       Uiso       1.00
      C288          C  0.5153045  0.4570226  0.0850524    0.00000       Uiso       1.00
      C289          C  0.5104344  0.4670178  0.0749347    0.00000       Uiso       1.00
      C290          C  0.5135308  0.4916381  0.1210529    0.00000       Uiso       1.00
      C291          C  0.5086449  0.5016135  0.1109382    0.00000       Uiso       1.00
      C292          C  0.5078126  0.4899559  0.0873000    0.00000       Uiso       1.00
       H95          H  0.5435434  0.5320708  0.0853782    0.00000       Uiso       1.00
       H96          H  0.5145685  0.5015711  0.1389996    0.00000       Uiso       1.00
       F89          F  0.4210905  0.5060210  0.1445235    0.00000       Uiso       1.00
       F90          F  0.5175964  0.4326593  0.0711497    0.00000       Uiso       1.00
       F91          F  0.4939740  0.4824068  0.9982642    0.00000       Uiso       1.00
       F92          F  0.5673464  0.5789005  0.0947554    0.00000       Uiso       1.00
       F93          F  0.5039361  0.5248517  0.1259208    0.00000       Uiso       1.00
       F94          F  0.4721601  0.4512585  0.0523131    0.00000       Uiso       1.00
       F95          F  0.4751392  0.5278282  0.0811254    0.00000       Uiso       1.00
       F96          F  0.5487381  0.4960396  0.0493375    0.00000       Uiso       1.00
      C293          C  0.1724497  0.4047259  0.5424633    0.00000       Uiso       1.00
      C294          C  0.1847622  0.4277457  0.5406995    0.00000       Uiso       1.00
      C295          C  0.1742686  0.4383124  0.5369287    0.00000       Uiso       1.00
      C296          C  0.1494301  0.3924136  0.5406993    0.00000       Uiso       1.00
      C297          C  0.1388865  0.4028250  0.5368244    0.00000       Uiso       1.00
      C298          C  0.1511659  0.4259560  0.5348130    0.00000       Uiso       1.00
       H97          H  0.8907063  0.4647865  0.6072484    0.00000       Uiso       1.00
       H98          H  0.1391072  0.3736478  0.5421579    0.00000       Uiso       1.00
      C299          C  0.1196425  0.7330106  0.5952739    0.00000       Uiso       1.00
      C300          C  0.1178785  0.7205392  0.6075860    0.00000       Uiso       1.00
      C301          C  0.1140036  0.6957091  0.5971745    0.00000       Uiso       1.00
      C302          C  0.1178787  0.7205394  0.5722544    0.00000       Uiso       1.00
      C303          C  0.1141081  0.6957083  0.5616875    0.00000       Uiso       1.00
      C304          C  0.1119926  0.6828462  0.5740436    0.00000       Uiso       1.00
       H99          H  0.1844278  0.4559886  0.5352096    0.00000       Uiso       1.00
      H100          H  0.1193371  0.7304407  0.6263516    0.00000       Uiso       1.00
      C305          C  0.8441675  0.4575347  0.5952720    0.00000       Uiso       1.00
      C306          C  0.8566390  0.4592988  0.5722525    0.00000       Uiso       1.00
      C307          C  0.8814692  0.4631745  0.5617092    0.00000       Uiso       1.00
      C308          C  0.8566387  0.4592986  0.6075842    0.00000       Uiso       1.00
      C309          C  0.8814699  0.4630687  0.5970903    0.00000       Uiso       1.00
      C310          C  0.8943318  0.4651850  0.5739881    0.00000       Uiso       1.00
      H101          H  0.1211876  0.3927512  0.3135298    0.00000       Uiso       1.00
      H102          H  0.8467373  0.4578401  0.5619298    0.00000       Uiso       1.00
      C311          C  0.1724514  0.4047278  0.2669914    0.00000       Uiso       1.00
      C312          C  0.1494316  0.3924153  0.2794625    0.00000       Uiso       1.00
      C313          C  0.1388644  0.4029095  0.3042935    0.00000       Uiso       1.00
      C314          C  0.1847637  0.4277474  0.2794628    0.00000       Uiso       1.00
      C315          C  0.1743524  0.4382911  0.3042926    0.00000       Uiso       1.00
      C316          C  0.1512212  0.4260121  0.3171553    0.00000       Uiso       1.00
      H103          H  0.1123892  0.6864720  0.5440114    0.00000       Uiso       1.00
      C317          C  0.0771765  0.4999995  0.5000003    0.00000       Uiso       1.00
      H104          H  0.2035295  0.4380703  0.2695613    0.00000       Uiso       1.00
       F97          F  0.2092893  0.4412378  0.5426062    0.00000       Uiso       1.00
       F98          F  0.1359395  0.3678882  0.2665208    0.00000       Uiso       1.00
       F99          F  0.8436970  0.4573918  0.6321110    0.00000       Uiso       1.00
      F100          F  0.1197855  0.7334812  0.5587626    0.00000       Uiso       1.00
      F101          F  0.1880901  0.4629343  0.3167904    0.00000       Uiso       1.00
      F102          F  0.1142430  0.3890874  0.5352330    0.00000       Uiso       1.00
      F103          F  0.1124118  0.6832116  0.6109120    0.00000       Uiso       1.00
      F104          F  0.8939674  0.4647675  0.5370666    0.00000       Uiso       1.00
      C318          C  0.1400263  0.4369822  0.5303613    0.00000       Uiso       1.00
      C319          C  0.1427755  0.4616052  0.5416688    0.00000       Uiso       1.00
      C320          C  0.1324111  0.4718851  0.5374152    0.00000       Uiso       1.00
      C321          C  0.1265599  0.4229758  0.5146707    0.00000       Uiso       1.00
      C322          C  0.1162158  0.4332507  0.5103973    0.00000       Uiso       1.00
      C323          C  0.1189550  0.4578857  0.5216989    0.00000       Uiso       1.00
      H105          H  0.9637490  0.4532148  0.5574367    0.00000       Uiso       1.00
      H106          H  0.1244157  0.4040866  0.5052745    0.00000       Uiso       1.00
      C324          C  0.1075412  0.6562288  0.5630171    0.00000       Uiso       1.00
      C325          C  0.0918481  0.6410773  0.5770224    0.00000       Uiso       1.00
      C326          C  0.0875738  0.6161847  0.5667475    0.00000       Uiso       1.00
      C327          C  0.1188506  0.6456632  0.5383947    0.00000       Uiso       1.00
      C328          C  0.1145962  0.6207650  0.5281150    0.00000       Uiso       1.00
      C329          C  0.0988775  0.6055914  0.5421133    0.00000       Uiso       1.00
      H107          H  0.1346369  0.4907973  0.5467617    0.00000       Uiso       1.00
      H108          H  0.0824498  0.6484260  0.5959108    0.00000       Uiso       1.00
      C330          C  0.9209492  0.4696366  0.5628483    0.00000       Uiso       1.00
      C331          C  0.9361014  0.4853360  0.5493916    0.00000       Uiso       1.00
      C332          C  0.9609939  0.4896085  0.5390472    0.00000       Uiso       1.00
      C333          C  0.9315135  0.4583194  0.5655872    0.00000       Uiso       1.00
      C334          C  0.9564112  0.4625709  0.5552211    0.00000       Uiso       1.00
      C335          C  0.9715856  0.4782961  0.5417747    0.00000       Uiso       1.00
      H109          H  0.0863840  0.4425599  0.3865717    0.00000       Uiso       1.00
      H110          H  0.9287534  0.4947385  0.5472551    0.00000       Uiso       1.00
      C336          C  0.1401954  0.4371526  0.3437725    0.00000       Uiso       1.00
      C337          C  0.1155743  0.4344119  0.3543376    0.00000       Uiso       1.00
      C338          C  0.1052944  0.4447786  0.3792347    0.00000       Uiso       1.00
      C339          C  0.1542005  0.4506127  0.3589239    0.00000       Uiso       1.00
      C340          C  0.1439250  0.4609582  0.3838161    0.00000       Uiso       1.00
      C341          C  0.1192927  0.4582285  0.3944087    0.00000       Uiso       1.00
      H111          H  0.1239425  0.6134236  0.5092034    0.00000       Uiso       1.00
      H112          H  0.1730882  0.4527515  0.3515759    0.00000       Uiso       1.00
      F105          F  0.1563425  0.4771400  0.5588915    0.00000       Uiso       1.00
      F106          F  0.1000418  0.4208523  0.3390811    0.00000       Uiso       1.00
      F107          F  0.9162558  0.4410871  0.5791435    0.00000       Uiso       1.00
      F108          F  0.1360749  0.6609191  0.5228611    0.00000       Uiso       1.00
      F109          F  0.1594680  0.4743655  0.3990441    0.00000       Uiso       1.00
      F110          F  0.1028042  0.4177032  0.4930374    0.00000       Uiso       1.00
      F111          F  0.0702079  0.6009603  0.5822939    0.00000       Uiso       1.00
      F112          F  0.9762231  0.5069773  0.5256456    0.00000       Uiso       1.00
      C342          C  0.1079934  0.4689125  0.5170010    0.00000       Uiso       1.00
      C343          C  0.1201579  0.4921237  0.5153008    0.00000       Uiso       1.00
      C344          C  0.1101602  0.5022411  0.5104334    0.00000       Uiso       1.00
      C345          C  0.0855383  0.4561265  0.5135381    0.00000       Uiso       1.00
      C346          C  0.0755595  0.4662410  0.5086558    0.00000       Uiso       1.00
      C347          C  0.0872185  0.4898771  0.5078185    0.00000       Uiso       1.00
      H113          H  0.0450964  0.4917861  0.5435447    0.00000       Uiso       1.00
      H114          H  0.0756058  0.4381815  0.5145797    0.00000       Uiso       1.00
      C348          C  0.0941800  0.5789052  0.5310857    0.00000       Uiso       1.00
      C349          C  0.0907163  0.5657735  0.5438719    0.00000       Uiso       1.00
      C350          C  0.0858320  0.5407970  0.5337588    0.00000       Uiso       1.00
      C351          C  0.0924801  0.5661582  0.5078747    0.00000       Uiso       1.00
      C352          C  0.0876108  0.5411750  0.4977588    0.00000       Uiso       1.00
      C353          C  0.0849941  0.5279821  0.5101233    0.00000       Uiso       1.00
      H115          H  0.1207259  0.5196769  0.5082062    0.00000       Uiso       1.00
      H116          H  0.0917570  0.5748308  0.5618173    0.00000       Uiso       1.00
      C354          C  0.9982716  0.4829943  0.5308126    0.00000       Uiso       1.00
      C355          C  0.0114033  0.4864594  0.5083589    0.00000       Uiso       1.00
      C356          C  0.0363790  0.4913436  0.4983815    0.00000       Uiso       1.00
      C357          C  0.0110173  0.4846946  0.5429770    0.00000       Uiso       1.00
      C358          C  0.0359998  0.4895625  0.5329803    0.00000       Uiso       1.00
      C359          C  0.0491928  0.4921793  0.5100401    0.00000       Uiso       1.00
      H117          H  0.0574994  0.4564587  0.4679215    0.00000       Uiso       1.00
      H118          H  0.0023492  0.4854174  0.4984263    0.00000       Uiso       1.00
      C360          C  0.1082673  0.4691907  0.4210950    0.00000       Uiso       1.00
      C361          C  0.0850550  0.4570268  0.4338403    0.00000       Uiso       1.00
      C362          C  0.0749370  0.4670218  0.4588234    0.00000       Uiso       1.00
      C363          C  0.1210558  0.4916426  0.4342292    0.00000       Uiso       1.00
      C364          C  0.1109408  0.5016177  0.4592053    0.00000       Uiso       1.00
      C365          C  0.0873024  0.4899599  0.4720181    0.00000       Uiso       1.00
      H119          H  0.0853805  0.5320747  0.4803244    0.00000       Uiso       1.00
      H120          H  0.1390026  0.5015758  0.4251779    0.00000       Uiso       1.00
      F113          F  0.1445260  0.5060251  0.5175812    0.00000       Uiso       1.00
      F114          F  0.0711523  0.4326635  0.4210877    0.00000       Uiso       1.00
      F115          F  0.9982666  0.4824097  0.5673431    0.00000       Uiso       1.00
      F116          F  0.0947576  0.5789043  0.4939743    0.00000       Uiso       1.00
      F117          F  0.1259234  0.5248559  0.4721697    0.00000       Uiso       1.00
      F118          F  0.0523150  0.4512620  0.5039595    0.00000       Uiso       1.00
      F119          F  0.0811271  0.5278317  0.5487384    0.00000       Uiso       1.00
      F120          F  0.0493395  0.4960434  0.4751391    0.00000       Uiso       1.00
      C366          C  0.1724498  0.0347135  0.1724512    0.00000       Uiso       1.00
      C367          C  0.1494301  0.0364773  0.1847634    0.00000       Uiso       1.00
      C368          C  0.1388636  0.0402484  0.1742699    0.00000       Uiso       1.00
      C369          C  0.1847622  0.0364776  0.1494317    0.00000       Uiso       1.00
      C370          C  0.1743510  0.0403526  0.1388882    0.00000       Uiso       1.00
      C371          C  0.1512200  0.0423641  0.1511674    0.00000       Uiso       1.00
      H121          H  0.1123901  0.9699296  0.8907082    0.00000       Uiso       1.00
      H122          H  0.2035279  0.0350189  0.1391090    0.00000       Uiso       1.00
      C372          C  0.8441663  0.9819045  0.1196425    0.00000       Uiso       1.00
      C373          C  0.8566375  0.9695922  0.1178785    0.00000       Uiso       1.00
      C374          C  0.8814675  0.9800037  0.1140038    0.00000       Uiso       1.00
      C375          C  0.8566387  0.0049244  0.1178788    0.00000       Uiso       1.00
      C376          C  0.8814698  0.0154913  0.1141084    0.00000       Uiso       1.00
      C377          C  0.8943316  0.0031350  0.1119929    0.00000       Uiso       1.00
      H123          H  0.1211874  0.0419675  0.1844289    0.00000       Uiso       1.00
      H124          H  0.8467357  0.9508263  0.1193371    0.00000       Uiso       1.00
      C378          C  0.1196423  0.9819064  0.8441699    0.00000       Uiso       1.00
      C379          C  0.1178795  0.0049262  0.8566412    0.00000       Uiso       1.00
      C380          C  0.1140037  0.0154695  0.8814712    0.00000       Uiso       1.00
      C381          C  0.1178783  0.9695940  0.8566410    0.00000       Uiso       1.00
      C382          C  0.1141081  0.9800879  0.8814719    0.00000       Uiso       1.00
      C383          C  0.1119929  0.0031904  0.8943338    0.00000       Uiso       1.00
      H125          H  0.1844275  0.2636503  0.1211896    0.00000       Uiso       1.00
      H126          H  0.1193383  0.0152491  0.8467396    0.00000       Uiso       1.00
      C384          C  0.1724513  0.3101891  0.1724530    0.00000       Uiso       1.00
      C385          C  0.1847636  0.2977179  0.1494334    0.00000       Uiso       1.00
      C386          C  0.1742693  0.2728867  0.1388663    0.00000       Uiso       1.00
      C387          C  0.1494315  0.2977177  0.1847651    0.00000       Uiso       1.00
      C388          C  0.1388877  0.2728876  0.1743538    0.00000       Uiso       1.00
      C389          C  0.1511666  0.2600248  0.1512228    0.00000       Uiso       1.00
      H127          H  0.8907062  0.0331676  0.1123896    0.00000       Uiso       1.00
      C390          C  0.0771778  0.0771783  0.0771782    0.00000       Uiso       1.00
      H128          H  0.1391087  0.3076193  0.2035307    0.00000       Uiso       1.00
      F121          F  0.1359379  0.0345705  0.2092903    0.00000       Uiso       1.00
      F122          F  0.2092909  0.3106597  0.1359416    0.00000       Uiso       1.00
      F123          F  0.1197848  0.9450669  0.8436993    0.00000       Uiso       1.00
      F124          F  0.8436971  0.0184165  0.1197855    0.00000       Uiso       1.00
      F125          F  0.1142444  0.2603898  0.1880912    0.00000       Uiso       1.00
      F126          F  0.1880886  0.0419442  0.1142449    0.00000       Uiso       1.00
      F127          F  0.8939648  0.9662659  0.1124121    0.00000       Uiso       1.00
      F128          F  0.1124109  0.0401125  0.8939694    0.00000       Uiso       1.00
      C391          C  0.1401941  0.0468160  0.1400278    0.00000       Uiso       1.00
      C392          C  0.1155710  0.0355085  0.1427768    0.00000       Uiso       1.00
      C393          C  0.1052913  0.0397623  0.1324125    0.00000       Uiso       1.00
      C394          C  0.1542006  0.0625069  0.1265616    0.00000       Uiso       1.00
      C395          C  0.1439259  0.0667804  0.1162175    0.00000       Uiso       1.00
      C396          C  0.1192909  0.0554789  0.1189566    0.00000       Uiso       1.00
      H129          H  0.1239629  0.0197415  0.9637504    0.00000       Uiso       1.00
      H130          H  0.1730898  0.0719030  0.1244175    0.00000       Uiso       1.00
      C397          C  0.9209490  0.0141614  0.1075417    0.00000       Uiso       1.00
      C398          C  0.9361005  0.0001560  0.0918488    0.00000       Uiso       1.00
      C399          C  0.9609930  0.0104308  0.0875747    0.00000       Uiso       1.00
      C400          C  0.9315148  0.0387840  0.1188511    0.00000       Uiso       1.00
      C401          C  0.9564130  0.0490637  0.1145969    0.00000       Uiso       1.00
      C402          C  0.9715865  0.0350653  0.0988783    0.00000       Uiso       1.00
      H131          H  0.0863791  0.0304158  0.1346381    0.00000       Uiso       1.00
      H132          H  0.9287506  0.9812673  0.0824506    0.00000       Uiso       1.00
      C403          C  0.1075414  0.0143302  0.9209508    0.00000       Uiso       1.00
      C404          C  0.0918421  0.0277871  0.9361029    0.00000       Uiso       1.00
      C405          C  0.0875696  0.0381315  0.9609952    0.00000       Uiso       1.00
      C406          C  0.1188585  0.0115912  0.9315152    0.00000       Uiso       1.00
      C407          C  0.1146070  0.0219572  0.9564126    0.00000       Uiso       1.00
      C408          C  0.0988819  0.0354038  0.9715869    0.00000       Uiso       1.00
      H133          H  0.1346184  0.1906080  0.0863860    0.00000       Uiso       1.00
      H134          H  0.0824398  0.0299238  0.9287549    0.00000       Uiso       1.00
      C409          C  0.1400259  0.2334074  0.1401970    0.00000       Uiso       1.00
      C410          C  0.1427667  0.2228423  0.1155761    0.00000       Uiso       1.00
      C411          C  0.1323997  0.1979450  0.1052963    0.00000       Uiso       1.00
      C412          C  0.1265657  0.2182558  0.1542019    0.00000       Uiso       1.00
      C413          C  0.1162200  0.1933634  0.1439264    0.00000       Uiso       1.00
      C414          C  0.1189497  0.1827708  0.1192943    0.00000       Uiso       1.00
      H135          H  0.9637546  0.0679754  0.1239432    0.00000       Uiso       1.00
      H136          H  0.1244268  0.2256038  0.1730895    0.00000       Uiso       1.00
      F129          F  0.1000360  0.0182855  0.1563436    0.00000       Uiso       1.00
      F130          F  0.1563264  0.2380990  0.1000438    0.00000       Uiso       1.00
      F131          F  0.1360895  0.9980345  0.9162577    0.00000       Uiso       1.00
      F132          F  0.9162591  0.0543179  0.1360752    0.00000       Uiso       1.00
      F133          F  0.1028125  0.1781352  0.1594693    0.00000       Uiso       1.00
      F134          F  0.1594736  0.0841406  0.1028062    0.00000       Uiso       1.00
      F135          F  0.9762163  0.9948842  0.0702090    0.00000       Uiso       1.00
      F136          F  0.0702011  0.0515333  0.9762241    0.00000       Uiso       1.00
      C415          C  0.1082643  0.0601769  0.1079950    0.00000       Uiso       1.00
      C416          C  0.0850532  0.0618773  0.1201593    0.00000       Uiso       1.00
      C417          C  0.0749360  0.0667448  0.1101616    0.00000       Uiso       1.00
      C418          C  0.1210503  0.0636400  0.0855401    0.00000       Uiso       1.00
      C419          C  0.1109361  0.0685224  0.0755614    0.00000       Uiso       1.00
      C420          C  0.0873000  0.0693598  0.0872201    0.00000       Uiso       1.00
      H137          H  0.0853908  0.0336335  0.0450984    0.00000       Uiso       1.00
      H138          H  0.1389953  0.0625983  0.0756078    0.00000       Uiso       1.00
      C421          C  0.9982727  0.0460929  0.0941811    0.00000       Uiso       1.00
      C422          C  0.0114037  0.0333064  0.0907175    0.00000       Uiso       1.00
      C423          C  0.0363802  0.0434196  0.0858333    0.00000       Uiso       1.00
      C424          C  0.0110193  0.0693041  0.0924813    0.00000       Uiso       1.00
      C425          C  0.0360026  0.0794200  0.0876122    0.00000       Uiso       1.00
      C426          C  0.0491952  0.0670553  0.0849956    0.00000       Uiso       1.00
      H139          H  0.0575003  0.0689721  0.1207271    0.00000       Uiso       1.00
      H140          H  0.0023462  0.0153608  0.0917581    0.00000       Uiso       1.00
      C427          C  0.0941838  0.0463659  0.9982726    0.00000       Uiso       1.00
      C428          C  0.0907182  0.0688199  0.0114055    0.00000       Uiso       1.00
      C429          C  0.0858340  0.0787973  0.0363811    0.00000       Uiso       1.00
      C430          C  0.0924826  0.0342014  0.0110195    0.00000       Uiso       1.00
      C431          C  0.0876146  0.0441980  0.0360019    0.00000       Uiso       1.00
      C432          C  0.0849980  0.0671385  0.0491948    0.00000       Uiso       1.00
      H141          H  0.1207189  0.1092574  0.0575015    0.00000       Uiso       1.00
      H142          H  0.0917603  0.0787527  0.0023515    0.00000       Uiso       1.00
      C433          C  0.1079873  0.1560843  0.1082689    0.00000       Uiso       1.00
      C434          C  0.1201510  0.1433388  0.0850569    0.00000       Uiso       1.00
      C435          C  0.1101559  0.1183556  0.0749389    0.00000       Uiso       1.00
      C436          C  0.0855353  0.1429500  0.1210572    0.00000       Uiso       1.00
      C437          C  0.0755599  0.1179736  0.1109422    0.00000       Uiso       1.00
      C438          C  0.0872177  0.1051607  0.0873040    0.00000       Uiso       1.00
      H143          H  0.0451030  0.0968546  0.0853819    0.00000       Uiso       1.00
      H144          H  0.0756022  0.1520013  0.1390038    0.00000       Uiso       1.00
      F137          F  0.0711517  0.0595967  0.1445271    0.00000       Uiso       1.00
      F138          F  0.1445145  0.1560916  0.0711545    0.00000       Uiso       1.00
      F139          F  0.0947679  0.0098350  0.9982677    0.00000       Uiso       1.00
      F140          F  0.9982740  0.0832048  0.0947587    0.00000       Uiso       1.00
      F141          F  0.0523216  0.1050091  0.1259246    0.00000       Uiso       1.00
      F142          F  0.1259151  0.0732188  0.0523172    0.00000       Uiso       1.00
      F143          F  0.0493452  0.0284397  0.0811286    0.00000       Uiso       1.00
      F144          F  0.0811345  0.1020401  0.0493415    0.00000       Uiso       1.00
      C439          C  0.6146854  0.7960403  0.6344977    0.00000       Uiso       1.00
      C440          C  0.6136037  0.8166327  0.6549399    0.00000       Uiso       1.00
      C441          C  0.5922438  0.8172873  0.6745600    0.00000       Uiso       1.00
      C442          C  0.5918164  0.8376395  0.6953502    0.00000       Uiso       1.00
      C443          C  0.6130911  0.8573251  0.6975311    0.00000       Uiso       1.00
      C444          C  0.6344982  0.8561276  0.6776671    0.00000       Uiso       1.00
      C445          C  0.6348258  0.8368865  0.6557415    0.00000       Uiso       1.00
        O1          O  0.5958562  0.7744472  0.6312174    0.00000       Uiso       1.00
      H145          H  0.5758442  0.8019166  0.6736857    0.00000       Uiso       1.00
      H146          H  0.5747122  0.8375515  0.7096589    0.00000       Uiso       1.00
      H147          H  0.6513375  0.8695067  0.6797286    0.00000       Uiso       1.00
      C446          C  0.7811080  0.9427115  0.6146841    0.00000       Uiso       1.00
      C447          C  0.7605091  0.9222745  0.6135995    0.00000       Uiso       1.00
      C448          C  0.7598540  0.9026466  0.5922446    0.00000       Uiso       1.00
      C449          C  0.7395017  0.8818555  0.5918235    0.00000       Uiso       1.00
      C450          C  0.7198187  0.8796779  0.6130999    0.00000       Uiso       1.00
      C451          C  0.7210145  0.8995563  0.6344990    0.00000       Uiso       1.00
      C452          C  0.7402543  0.9214824  0.6348187    0.00000       Uiso       1.00
        O2          O  0.8027104  0.9459747  0.5958612    0.00000       Uiso       1.00
      H148          H  0.7752264  0.9035080  0.5758464    0.00000       Uiso       1.00
      H149          H  0.7395934  0.8675416  0.5747221    0.00000       Uiso       1.00
      H150          H  0.7076430  0.8975086  0.6513426    0.00000       Uiso       1.00
      C453          C  0.6344673  0.9624868  0.7811208    0.00000       Uiso       1.00
      C454          C  0.6548943  0.9635764  0.7605187    0.00000       Uiso       1.00
      C455          C  0.6745036  0.9849428  0.7598602    0.00000       Uiso       1.00
      C456          C  0.6952882  0.9853794  0.7395001    0.00000       Uiso       1.00
      C457          C  0.6974718  0.9641066  0.7198117    0.00000       Uiso       1.00
      C458          C  0.6776101  0.9426939  0.7210096    0.00000       Uiso       1.00
      C459          C  0.6556926  0.9423570  0.7402639    0.00000       Uiso       1.00
        O3          O  0.6311940  0.9813173  0.8027123    0.00000       Uiso       1.00
      H151          H  0.6736262  0.0013356  0.7752413    0.00000       Uiso       1.00
      H152          H  0.7095948  0.0024867  0.7395886    0.00000       Uiso       1.00
      H153          H  0.6796697  0.9258560  0.7076252    0.00000       Uiso       1.00
      C460          C  0.6155692  0.9414523  0.7820993    0.00000       Uiso       1.00
      C461          C  0.6151175  0.9204035  0.7620729    0.00000       Uiso       1.00
      C462          C  0.5954925  0.8990800  0.7629822    0.00000       Uiso       1.00
      C463          C  0.5949812  0.8784465  0.7424755    0.00000       Uiso       1.00
      C464          C  0.6134847  0.8790499  0.7201842    0.00000       Uiso       1.00
      C465          C  0.6328282  0.9008960  0.7195616    0.00000       Uiso       1.00
      C466          C  0.6348886  0.9210734  0.7404742    0.00000       Uiso       1.00
        O4          O  0.5975587  0.9439726  0.8044057    0.00000       Uiso       1.00
      H154          H  0.5805645  0.8984584  0.7797210    0.00000       Uiso       1.00
      H155          H  0.5798548  0.8622190  0.7443517    0.00000       Uiso       1.00
      H156          H  0.6457034  0.9027293  0.7024864    0.00000       Uiso       1.00
      C467          C  0.7820721  0.9616282  0.6357105    0.00000       Uiso       1.00
      C468          C  0.7620372  0.9620864  0.6567519    0.00000       Uiso       1.00
      C469          C  0.7629264  0.9817320  0.6780646    0.00000       Uiso       1.00
      C470          C  0.7424127  0.9822439  0.6986893    0.00000       Uiso       1.00
      C471          C  0.7201316  0.9637163  0.6980917    0.00000       Uiso       1.00
      C472          C  0.7195297  0.9443545  0.6762547    0.00000       Uiso       1.00
      C473          C  0.7404499  0.9422999  0.6560876    0.00000       Uiso       1.00
        O5          O  0.8043755  0.9796421  0.6331896    0.00000       Uiso       1.00
      H157          H  0.7796590  0.9966724  0.6786878    0.00000       Uiso       1.00
      H158          H  0.7442812  0.9973890  0.7149075    0.00000       Uiso       1.00
      H159          H  0.7024642  0.9314599  0.6744098    0.00000       Uiso       1.00
      C474          C  0.6357152  0.7950792  0.6155831    0.00000       Uiso       1.00
      C475          C  0.6567582  0.8151098  0.6151351    0.00000       Uiso       1.00
      C476          C  0.6780664  0.8142199  0.5954867    0.00000       Uiso       1.00
      C477          C  0.6986918  0.8347324  0.5949697    0.00000       Uiso       1.00
      C478          C  0.6981008  0.8570139  0.6135036    0.00000       Uiso       1.00
      C479          C  0.6762678  0.8576141  0.6328768    0.00000       Uiso       1.00
      C480          C  0.6560978  0.8366933  0.6349277    0.00000       Uiso       1.00
        O6          O  0.6331926  0.7727858  0.5975546    0.00000       Uiso       1.00
      H160          H  0.6786802  0.7974859  0.5805447    0.00000       Uiso       1.00
      H161          H  0.7149031  0.8328622  0.5798144    0.00000       Uiso       1.00
      H162          H  0.6744272  0.8746808  0.6457802    0.00000       Uiso       1.00
        B1          B  0.6078204  0.7598194  0.6076910    0.00000       Uiso       1.00
        B2          B  0.8173471  0.9694949  0.6078230    0.00000       Uiso       1.00
        B3          B  0.6076877  0.9693509  0.8173594    0.00000       Uiso       1.00
      C481          C  0.6344949  0.4531412  0.6146845    0.00000       Uiso       1.00
      C482          C  0.6549371  0.4519093  0.6136028    0.00000       Uiso       1.00
      C483          C  0.6745575  0.4495151  0.5922431    0.00000       Uiso       1.00
      C484          C  0.6953478  0.4495259  0.5918158    0.00000       Uiso       1.00
      C485          C  0.6975285  0.4532956  0.6130902    0.00000       Uiso       1.00
      C486          C  0.6776641  0.4560359  0.6344971    0.00000       Uiso       1.00
      C487          C  0.6557385  0.4536791  0.6348246    0.00000       Uiso       1.00
        O7          O  0.6312148  0.4526249  0.5958555    0.00000       Uiso       1.00
      H163          H  0.6736835  0.4476122  0.5758438    0.00000       Uiso       1.00
      H164          H  0.7096567  0.4468185  0.5747117    0.00000       Uiso       1.00
      H165          H  0.6797255  0.4615574  0.6513363    0.00000       Uiso       1.00
      C488          C  0.6146792  0.4530768  0.7811048    0.00000       Uiso       1.00
      C489          C  0.6135949  0.4518307  0.7605062    0.00000       Uiso       1.00
      C490          C  0.5922399  0.4494483  0.7598510    0.00000       Uiso       1.00
      C491          C  0.5918190  0.4494663  0.7394990    0.00000       Uiso       1.00
      C492          C  0.6130957  0.4532377  0.7198164    0.00000       Uiso       1.00
      C493          C  0.6344949  0.4559543  0.7210123    0.00000       Uiso       1.00
      C494          C  0.6348144  0.4535874  0.7402517    0.00000       Uiso       1.00
        O8          O  0.5958560  0.4525928  0.8027069    0.00000       Uiso       1.00
      H166          H  0.5758415  0.4475610  0.7752232    0.00000       Uiso       1.00
      H167          H  0.5747176  0.4467706  0.7395908    0.00000       Uiso       1.00
      H168          H  0.6513388  0.4614743  0.7076409    0.00000       Uiso       1.00
      C495          C  0.7811179  0.4530995  0.6344662    0.00000       Uiso       1.00
      C496          C  0.7605156  0.4518346  0.6548929    0.00000       Uiso       1.00
      C497          C  0.7598568  0.4494187  0.6745019    0.00000       Uiso       1.00
      C498          C  0.7394964  0.4494064  0.6952863    0.00000       Uiso       1.00
      C499          C  0.7198080  0.4531743  0.6974698    0.00000       Uiso       1.00
      C500          C  0.7210060  0.4559234  0.6776084    0.00000       Uiso       1.00
      C501          C  0.7402608  0.4535975  0.6556911    0.00000       Uiso       1.00
        O9          O  0.8027095  0.4525874  0.6311930    0.00000       Uiso       1.00
      H169          H  0.7752379  0.4475287  0.6736235    0.00000       Uiso       1.00
      H170          H  0.7395847  0.4466932  0.7095916    0.00000       Uiso       1.00
      H171          H  0.7076217  0.4614366  0.6796681    0.00000       Uiso       1.00
      C502          C  0.7820967  0.4562147  0.6155684    0.00000       Uiso       1.00
      C503          C  0.7620703  0.4567854  0.6151167    0.00000       Uiso       1.00
      C504          C  0.7629799  0.4593937  0.5954921    0.00000       Uiso       1.00
      C505          C  0.7424731  0.4590089  0.5949807    0.00000       Uiso       1.00
      C506          C  0.7201816  0.4546175  0.6134838    0.00000       Uiso       1.00
      C507          C  0.7195587  0.4514920  0.6328271    0.00000       Uiso       1.00
      C508          C  0.7404712  0.4542876  0.6348875    0.00000       Uiso       1.00
       O10          O  0.8044034  0.4579907  0.5975582    0.00000       Uiso       1.00
      H172          H  0.7797189  0.4618262  0.5805641    0.00000       Uiso       1.00
      H173          H  0.7443497  0.4619866  0.5798545    0.00000       Uiso       1.00
      H174          H  0.7024832  0.4454585  0.6457021    0.00000       Uiso       1.00
      C509          C  0.6357056  0.4561507  0.7820690    0.00000       Uiso       1.00
      C510          C  0.6567473  0.4566993  0.7620344    0.00000       Uiso       1.00
      C511          C  0.6780600  0.4592556  0.7629237    0.00000       Uiso       1.00
      C512          C  0.6986850  0.4588550  0.7424102    0.00000       Uiso       1.00
      C513          C  0.6980878  0.4545040  0.7201293    0.00000       Uiso       1.00
      C514          C  0.6762506  0.4514270  0.7195274    0.00000       Uiso       1.00
      C515          C  0.6560833  0.4542345  0.7404473    0.00000       Uiso       1.00
       O11          O  0.6331845  0.4579191  0.8043721    0.00000       Uiso       1.00
      H175          H  0.6786830  0.4616708  0.7796560    0.00000       Uiso       1.00
      H176          H  0.7149033  0.4617966  0.7442787    0.00000       Uiso       1.00
      H177          H  0.6744058  0.4454112  0.7024620    0.00000       Uiso       1.00
      C516          C  0.6155801  0.4562173  0.6357141    0.00000       Uiso       1.00
      C517          C  0.6151319  0.4567814  0.6567568    0.00000       Uiso       1.00
      C518          C  0.5954831  0.4593308  0.6780646    0.00000       Uiso       1.00
      C519          C  0.5949658  0.4589265  0.6986899    0.00000       Uiso       1.00
      C520          C  0.6134998  0.4545878  0.6980988    0.00000       Uiso       1.00
      C521          C  0.6328732  0.4515281  0.6762661    0.00000       Uiso       1.00
      C522          C  0.6349245  0.4543301  0.6560963    0.00000       Uiso       1.00
       O12          O  0.5975516  0.4579596  0.6331915    0.00000       Uiso       1.00
      H178          H  0.5805411  0.4617366  0.6786785    0.00000       Uiso       1.00
      H179          H  0.5798104  0.4618524  0.7149009    0.00000       Uiso       1.00
      H180          H  0.6457766  0.4455242  0.6744254    0.00000       Uiso       1.00
        B4          B  0.6076884  0.4556906  0.6078196    0.00000       Uiso       1.00
        B5          B  0.6078176  0.4556710  0.8173435    0.00000       Uiso       1.00
        B6          B  0.8173570  0.4556949  0.6076869    0.00000       Uiso       1.00
       Si1         Si  0.1949126  0.3822475  0.5695904    0.00000       Uiso       1.00
        B7          B  0.2406380  0.3903402  0.5408359    0.00000       Uiso       1.00
       O13          O  0.2224250  0.3794243  0.5592263    0.00000       Uiso       1.00
       O14          O  0.1977433  0.4022271  0.5592374    0.00000       Uiso       1.00
        B8          B  0.1868384  0.3911386  0.5408381    0.00000       Uiso       1.00
        B9          B  0.1860379  0.3365343  0.5408339    0.00000       Uiso       1.00
       O15          O  0.1749393  0.3547443  0.5592149    0.00000       Uiso       1.00
       O16          O  0.2359546  0.3889020  0.5213999    0.00000       Uiso       1.00
       O17          O  0.1882703  0.3684542  0.5214077    0.00000       Uiso       1.00
       O18          O  0.2087318  0.3412263  0.5214168    0.00000       Uiso       1.00
       Si2         Si  0.2143418  0.3628297  0.5113288    0.00000       Uiso       1.00
       O19          O  0.1846344  0.3925218  0.6004015    0.00000       Uiso       1.00
      H181          H  0.1834130  0.3801040  0.6048869    0.00000       Uiso       1.00
       O20          O  0.2246287  0.3525680  0.4805170    0.00000       Uiso       1.00
      H182          H  0.2114959  0.3376831  0.4760235    0.00000       Uiso       1.00
       Si3         Si  0.5695918  0.3822583  0.1949164    0.00000       Uiso       1.00
       B10          B  0.5408368  0.3911360  0.2406413    0.00000       Uiso       1.00
       O21          O  0.5592275  0.4022296  0.2224287    0.00000       Uiso       1.00
       O22          O  0.5592384  0.3547561  0.1977468    0.00000       Uiso       1.00
       B11          B  0.5408390  0.3365403  0.1868418    0.00000       Uiso       1.00
       B12          B  0.5408354  0.3903405  0.1860419    0.00000       Uiso       1.00
       O23          O  0.5592164  0.3794129  0.1749434    0.00000       Uiso       1.00
       O24          O  0.5214005  0.3684546  0.2359577    0.00000       Uiso       1.00
       O25          O  0.5214086  0.3412262  0.1882737    0.00000       Uiso       1.00
       O26          O  0.5214180  0.3889250  0.2087355    0.00000       Uiso       1.00
       Si4         Si  0.5113296  0.3628432  0.2143451    0.00000       Uiso       1.00
       O27          O  0.6004031  0.3925173  0.1846385    0.00000       Uiso       1.00
      H183          H  0.6048887  0.4081992  0.1834173    0.00000       Uiso       1.00
       O28          O  0.4805176  0.3525797  0.2246317    0.00000       Uiso       1.00
      H184          H  0.4760241  0.3498383  0.2114991    0.00000       Uiso       1.00
      C523          C  0.1240368  0.9624950  0.6344989    0.00000       Uiso       1.00
      C524          C  0.1252686  0.9635766  0.6549410    0.00000       Uiso       1.00
      C525          C  0.1276628  0.9849364  0.6745612    0.00000       Uiso       1.00
      C526          C  0.1276520  0.9853635  0.6953512    0.00000       Uiso       1.00
      C527          C  0.1238820  0.9640889  0.6975319    0.00000       Uiso       1.00
      C528          C  0.1211417  0.9426819  0.6776677    0.00000       Uiso       1.00
      C529          C  0.1234985  0.9423544  0.6557423    0.00000       Uiso       1.00
       O29          O  0.1245533  0.9813243  0.6312188    0.00000       Uiso       1.00
      H185          H  0.1295670  0.0013360  0.6736872    0.00000       Uiso       1.00
      H186          H  0.1303605  0.0024678  0.7096601    0.00000       Uiso       1.00
      H187          H  0.1156199  0.9258425  0.6797290    0.00000       Uiso       1.00
      C530          C  0.1240993  0.7960725  0.6146832    0.00000       Uiso       1.00
      C531          C  0.1253456  0.8166714  0.6135989    0.00000       Uiso       1.00
      C532          C  0.1277281  0.8173267  0.5922441    0.00000       Uiso       1.00
      C533          C  0.1277104  0.8376790  0.5918232    0.00000       Uiso       1.00
      C534          C  0.1239392  0.8573618  0.6130998    0.00000       Uiso       1.00
      C535          C  0.1212224  0.8561658  0.6344988    0.00000       Uiso       1.00
      C536          C  0.1235890  0.8369260  0.6348183    0.00000       Uiso       1.00
       O30          O  0.1245831  0.7744702  0.5958601    0.00000       Uiso       1.00
      H188          H  0.1296154  0.8019544  0.5758458    0.00000       Uiso       1.00
      H189          H  0.1304061  0.8375874  0.5747221    0.00000       Uiso       1.00
      H190          H  0.1157025  0.8695372  0.6513425    0.00000       Uiso       1.00
      C537          C  0.1240773  0.9427121  0.7811207    0.00000       Uiso       1.00
      C538          C  0.1253421  0.9222852  0.7605186    0.00000       Uiso       1.00
      C539          C  0.1277578  0.9026759  0.7598597    0.00000       Uiso       1.00
      C540          C  0.1277700  0.8818914  0.7394995    0.00000       Uiso       1.00
      C541          C  0.1240022  0.8797080  0.7198112    0.00000       Uiso       1.00
      C542          C  0.1212533  0.8995696  0.7210093    0.00000       Uiso       1.00
      C543          C  0.1235794  0.9214872  0.7402639    0.00000       Uiso       1.00
       O31          O  0.1245894  0.9459851  0.8027121    0.00000       Uiso       1.00
      H191          H  0.1296476  0.9035541  0.7752407    0.00000       Uiso       1.00
      H192          H  0.1304830  0.8675858  0.7395878    0.00000       Uiso       1.00
      H193          H  0.1157402  0.8975102  0.7076251    0.00000       Uiso       1.00
      C544          C  0.1209624  0.9616101  0.7820995    0.00000       Uiso       1.00
      C545          C  0.1203918  0.9620619  0.7620732    0.00000       Uiso       1.00
      C546          C  0.1177838  0.9816869  0.7629828    0.00000       Uiso       1.00
      C547          C  0.1181687  0.9821984  0.7424762    0.00000       Uiso       1.00
      C548          C  0.1225601  0.9636952  0.7201849    0.00000       Uiso       1.00
      C549          C  0.1256852  0.9443516  0.7195619    0.00000       Uiso       1.00
      C550          C  0.1228895  0.9422910  0.7404744    0.00000       Uiso       1.00
       O32          O  0.1191865  0.9796205  0.8044060    0.00000       Uiso       1.00
      H194          H  0.1153514  0.9966149  0.7797218    0.00000       Uiso       1.00
      H195          H  0.1151912  0.9973248  0.7443527    0.00000       Uiso       1.00
      H196          H  0.1317187  0.9314765  0.7024866    0.00000       Uiso       1.00
      C551          C  0.1210252  0.7951081  0.6357095    0.00000       Uiso       1.00
      C552          C  0.1204769  0.8151430  0.6567510    0.00000       Uiso       1.00
      C553          C  0.1179203  0.8142536  0.6780635    0.00000       Uiso       1.00
      C554          C  0.1183211  0.8347671  0.6986884    0.00000       Uiso       1.00
      C555          C  0.1226723  0.8570483  0.6980911    0.00000       Uiso       1.00
      C556          C  0.1257494  0.8576504  0.6762542    0.00000       Uiso       1.00
      C557          C  0.1229419  0.8367304  0.6560870    0.00000       Uiso       1.00
       O33          O  0.1192566  0.7728048  0.6331883    0.00000       Uiso       1.00
      H197          H  0.1155049  0.7975210  0.6786866    0.00000       Uiso       1.00
      H198          H  0.1153794  0.8328986  0.7149065    0.00000       Uiso       1.00
      H199          H  0.1317654  0.8747160  0.6744095    0.00000       Uiso       1.00
      C558          C  0.1209606  0.9414653  0.6155841    0.00000       Uiso       1.00
      C559          C  0.1203962  0.9204223  0.6151359    0.00000       Uiso       1.00
      C560          C  0.1178467  0.8991143  0.5954873    0.00000       Uiso       1.00
      C561          C  0.1182508  0.8784888  0.5949700    0.00000       Uiso       1.00
      C562          C  0.1225893  0.8790796  0.6135038    0.00000       Uiso       1.00
      C563          C  0.1256492  0.9009126  0.6328772    0.00000       Uiso       1.00
      C564          C  0.1228474  0.9210826  0.6349283    0.00000       Uiso       1.00
       O34          O  0.1192184  0.9439880  0.5975558    0.00000       Uiso       1.00
      H200          H  0.1154410  0.8985005  0.5805455    0.00000       Uiso       1.00
      H201          H  0.1153247  0.8622776  0.5798147    0.00000       Uiso       1.00
      H202          H  0.1316529  0.9027532  0.6457805    0.00000       Uiso       1.00
       B13          B  0.1214877  0.9693602  0.6076925    0.00000       Uiso       1.00
       B14          B  0.1215047  0.7598334  0.6078216    0.00000       Uiso       1.00
       B15          B  0.1214821  0.9694914  0.8173596    0.00000       Uiso       1.00
       Si5         Si  0.1949342  0.0075923  0.1949204    0.00000       Uiso       1.00
       B16          B  0.1868416  0.0363470  0.2406454    0.00000       Uiso       1.00
       O35          O  0.1977573  0.0179564  0.2224326    0.00000       Uiso       1.00
       O36          O  0.1749549  0.0179455  0.1977510    0.00000       Uiso       1.00
       B17          B  0.1860436  0.0363451  0.1868462    0.00000       Uiso       1.00
       B18          B  0.2406476  0.0363490  0.1860460    0.00000       Uiso       1.00
       O37          O  0.2224376  0.0179679  0.1749474    0.00000       Uiso       1.00
       O38          O  0.1882801  0.0557833  0.2359621    0.00000       Uiso       1.00
       O39          O  0.2087281  0.0557756  0.1882782    0.00000       Uiso       1.00
       O40          O  0.2359556  0.0557662  0.2087397    0.00000       Uiso       1.00
       Si6         Si  0.2143525  0.0658545  0.2143496    0.00000       Uiso       1.00
       O41          O  0.1846587  0.9767808  0.1846422    0.00000       Uiso       1.00
      H203          H  0.1970763  0.9722953  0.1834209    0.00000       Uiso       1.00
       O42          O  0.2246145  0.0966665  0.2246365    0.00000       Uiso       1.00
      H204          H  0.2394994  0.1011601  0.2115039    0.00000       Uiso       1.00
      C565          C  0.6146827  0.9426804  0.1240355    0.00000       Uiso       1.00
      C566          C  0.6136009  0.9222381  0.1252672    0.00000       Uiso       1.00
      C567          C  0.5922410  0.9026178  0.1276613    0.00000       Uiso       1.00
      C568          C  0.5918136  0.8818274  0.1276505    0.00000       Uiso       1.00
      C569          C  0.6130881  0.8796466  0.1238806    0.00000       Uiso       1.00
      C570          C  0.6344953  0.8995110  0.1211404    0.00000       Uiso       1.00
      C571          C  0.6348230  0.9214367  0.1234973    0.00000       Uiso       1.00
       O43          O  0.5958536  0.9459607  0.1245519    0.00000       Uiso       1.00
      H205          H  0.5758415  0.9034919  0.1295644    0.00000       Uiso       1.00
      H206          H  0.5747093  0.8675184  0.1303578    0.00000       Uiso       1.00
      H207          H  0.6513345  0.8974495  0.1156188    0.00000       Uiso       1.00
      C572          C  0.7811044  0.9624954  0.1240989    0.00000       Uiso       1.00
      C573          C  0.7605057  0.9635797  0.1253451    0.00000       Uiso       1.00
      C574          C  0.7598506  0.9849349  0.1277276    0.00000       Uiso       1.00
      C575          C  0.7394985  0.9853559  0.1277098    0.00000       Uiso       1.00
      C576          C  0.7198156  0.9640792  0.1239384    0.00000       Uiso       1.00
      C577          C  0.7210113  0.9426799  0.1212217    0.00000       Uiso       1.00
      C578          C  0.7402509  0.9423602  0.1235884    0.00000       Uiso       1.00
       O44          O  0.8027068  0.9813185  0.1245829    0.00000       Uiso       1.00
      H208          H  0.7752240  0.0013333  0.1296149    0.00000       Uiso       1.00
      H209          H  0.7395913  0.0024574  0.1304055    0.00000       Uiso       1.00
      H210          H  0.7076399  0.9258361  0.1157017    0.00000       Uiso       1.00
      C579          C  0.6344637  0.7960565  0.1240760    0.00000       Uiso       1.00
      C580          C  0.6548908  0.8166588  0.1253409    0.00000       Uiso       1.00
      C581          C  0.6744999  0.8173175  0.1277567    0.00000       Uiso       1.00
      C582          C  0.6952845  0.8376778  0.1277690    0.00000       Uiso       1.00
      C583          C  0.6974682  0.8573664  0.1240013    0.00000       Uiso       1.00
      C584          C  0.6776066  0.8561684  0.1212523    0.00000       Uiso       1.00
      C585          C  0.6556891  0.8369138  0.1235782    0.00000       Uiso       1.00
       O45          O  0.6311904  0.7744648  0.1245880    0.00000       Uiso       1.00
      H211          H  0.6736215  0.8019363  0.1296465    0.00000       Uiso       1.00
      H212          H  0.7095900  0.8375894  0.1304821    0.00000       Uiso       1.00
      H213          H  0.6796664  0.8695530  0.1157393    0.00000       Uiso       1.00
      C586          C  0.6155658  0.7950779  0.1209610    0.00000       Uiso       1.00
      C587          C  0.6151142  0.8151044  0.1203904    0.00000       Uiso       1.00
      C588          C  0.5954894  0.8141949  0.1177823    0.00000       Uiso       1.00
      C589          C  0.5949782  0.8347018  0.1181672    0.00000       Uiso       1.00
      C590          C  0.6134816  0.8569933  0.1225587    0.00000       Uiso       1.00
      C591          C  0.6328250  0.8576161  0.1256839    0.00000       Uiso       1.00
      C592          C  0.6348853  0.8367034  0.1228883    0.00000       Uiso       1.00
       O46          O  0.5975553  0.7727712  0.1191850    0.00000       Uiso       1.00
      H214          H  0.5805613  0.7974559  0.1153499    0.00000       Uiso       1.00
      H215          H  0.5798519  0.8328254  0.1151897    0.00000       Uiso       1.00
      H216          H  0.6457002  0.8746915  0.1317174    0.00000       Uiso       1.00
      C593          C  0.7820686  0.9414688  0.1210249    0.00000       Uiso       1.00
      C594          C  0.7620336  0.9204271  0.1204763    0.00000       Uiso       1.00
      C595          C  0.7629228  0.8991143  0.1179198    0.00000       Uiso       1.00
      C596          C  0.7424091  0.8784893  0.1183204    0.00000       Uiso       1.00
      C597          C  0.7201280  0.8790867  0.1226715    0.00000       Uiso       1.00
      C598          C  0.7195262  0.9009238  0.1257486    0.00000       Uiso       1.00
      C599          C  0.7404464  0.9210912  0.1229412    0.00000       Uiso       1.00
       O47          O  0.8043718  0.9439898  0.1192563    0.00000       Uiso       1.00
      H217          H  0.7796553  0.8984912  0.1155045    0.00000       Uiso       1.00
      H218          H  0.7442775  0.8622710  0.1153788    0.00000       Uiso       1.00
      H219          H  0.7024607  0.9027687  0.1317645    0.00000       Uiso       1.00
      C600          C  0.6357126  0.9615954  0.1209594    0.00000       Uiso       1.00
      C601          C  0.6567554  0.9620435  0.1203951    0.00000       Uiso       1.00
      C602          C  0.6780636  0.9816922  0.1178458    0.00000       Uiso       1.00
      C603          C  0.6986890  0.9822093  0.1182500    0.00000       Uiso       1.00
      C604          C  0.6980978  0.9636752  0.1225884    0.00000       Uiso       1.00
      C605          C  0.6762648  0.9443018  0.1256481    0.00000       Uiso       1.00
      C606          C  0.6560949  0.9422507  0.1228463    0.00000       Uiso       1.00
       O48          O  0.6331902  0.9796240  0.1192173    0.00000       Uiso       1.00
      H220          H  0.6786776  0.9966343  0.1154401    0.00000       Uiso       1.00
      H221          H  0.7149003  0.9973649  0.1153240    0.00000       Uiso       1.00
      H222          H  0.6744241  0.9313983  0.1316518    0.00000       Uiso       1.00
       B19          B  0.6078180  0.9694872  0.1214863    0.00000       Uiso       1.00
       B20          B  0.8173435  0.9693568  0.1215045    0.00000       Uiso       1.00
       B21          B  0.6076841  0.7598173  0.1214806    0.00000       Uiso       1.00
       Si7         Si  0.1949083  0.3822517  0.1949249    0.00000       Uiso       1.00
       B22          B  0.2406336  0.3911297  0.1868325    0.00000       Uiso       1.00
       O49          O  0.2224208  0.4022232  0.1977482    0.00000       Uiso       1.00
       O50          O  0.1977388  0.3547496  0.1749455    0.00000       Uiso       1.00
       B23          B  0.1868337  0.3365336  0.1860338    0.00000       Uiso       1.00
       B24          B  0.1860335  0.3903335  0.2406377    0.00000       Uiso       1.00
       O51          O  0.1749349  0.3794060  0.2224278    0.00000       Uiso       1.00
       O52          O  0.2359499  0.3684483  0.1882707    0.00000       Uiso       1.00
       O53          O  0.1882655  0.3412194  0.2087181    0.00000       Uiso       1.00
       O54          O  0.2087272  0.3889182  0.2359459    0.00000       Uiso       1.00
       Si8         Si  0.2143371  0.3628366  0.2143427    0.00000       Uiso       1.00
       O55          O  0.1846304  0.3925107  0.1846506    0.00000       Uiso       1.00
      H223          H  0.1834091  0.4081924  0.1970683    0.00000       Uiso       1.00
       O56          O  0.2246237  0.3525731  0.2246044    0.00000       Uiso       1.00
      H224          H  0.2114908  0.3498316  0.2394890    0.00000       Uiso       1.00
