data_73
_audit_creation_date              0000-00-00
_audit_creation_method            'LanYouShi'
_symmetry_space_group_name_H-M    'P1'
_cell_length_a                    62.6212997
_cell_length_b                    62.6212997
_cell_length_c                    62.6212997
_cell_angle_alpha                 60.0000000
_cell_angle_beta                  120.0018005
_cell_angle_gamma                 120.0018005
loop_
_atom_site_label
_atom_site_type_symbol
_atom_site_fract_x
_atom_site_fract_y
_atom_site_fract_z
_atom_site_U_iso_or_equiv
_atom_site_adp_type
_atom_site_occupancy
        C1          C  0.2462383  0.3962387  0.3962392    0.00000       Uiso       1.00
        C2          C  0.2598203  0.3828307  0.4213085    0.00000       Uiso       1.00
        C3          C  0.2868628  0.3942592  0.4328165    0.00000       Uiso       1.00
        C4          C  0.2598203  0.4213080  0.3828312    0.00000       Uiso       1.00
        C5          C  0.2868615  0.4327911  0.3941701    0.00000       Uiso       1.00
        C6          C  0.3008701  0.4194190  0.4193606    0.00000       Uiso       1.00
        H1          H  0.5477056  0.4611571  0.7032458    0.00000       Uiso       1.00
        H2          H  0.2490368  0.4325495  0.3623945    0.00000       Uiso       1.00
        H3          H  0.2490368  0.3623941  0.4325500    0.00000       Uiso       1.00
        C7          C  0.6037567  0.4537585  0.7537574    0.00000       Uiso       1.00
        C8          C  0.5786871  0.4556788  0.7401751    0.00000       Uiso       1.00
        C9          C  0.5672044  0.4598983  0.7131343    0.00000       Uiso       1.00
       C10          C  0.6171654  0.4556799  0.7401761    0.00000       Uiso       1.00
       C11          C  0.6057371  0.4597857  0.7131342    0.00000       Uiso       1.00
       C12          C  0.5805770  0.4620887  0.6991267    0.00000       Uiso       1.00
        H4          H  0.5388438  0.3833069  0.4522964    0.00000       Uiso       1.00
        H5          H  0.6376023  0.4540918  0.7509598    0.00000       Uiso       1.00
        H6          H  0.5674450  0.4540899  0.7509580    0.00000       Uiso       1.00
       C13          C  0.6037565  0.7537566  0.4537588    0.00000       Uiso       1.00
       C14          C  0.6171653  0.7401754  0.4556802    0.00000       Uiso       1.00
       C15          C  0.6058270  0.7131345  0.4599006    0.00000       Uiso       1.00
       C16          C  0.5786868  0.7401744  0.4556791    0.00000       Uiso       1.00
       C17          C  0.5671788  0.7131324  0.4597845    0.00000       Uiso       1.00
       C18          C  0.5806360  0.6991260  0.4620895    0.00000       Uiso       1.00
        H7          H  0.2967498  0.4522896  0.3833010    0.00000       Uiso       1.00
        H8          H  0.5674448  0.7509573  0.4540902    0.00000       Uiso       1.00
        H9          H  0.6376021  0.7509592  0.4540921    0.00000       Uiso       1.00
       C19          C  0.5462446  0.3962468  0.3962472    0.00000       Uiso       1.00
       C20          C  0.5443236  0.4213157  0.3828388    0.00000       Uiso       1.00
       C21          C  0.5402182  0.4328234  0.3942672    0.00000       Uiso       1.00
       C22          C  0.5443236  0.3828383  0.4213161    0.00000       Uiso       1.00
       C23          C  0.5401035  0.3941763  0.4327984    0.00000       Uiso       1.00
       C24          C  0.5379139  0.4193666  0.4194264    0.00000       Uiso       1.00
       H10          H  0.6166967  0.7032461  0.4611611    0.00000       Uiso       1.00
       C25          C  0.4999999  0.5000014  0.5000004    0.00000       Uiso       1.00
       H11          H  0.5459123  0.3624021  0.4325579    0.00000       Uiso       1.00
       H12          H  0.5459123  0.4325575  0.3624025    0.00000       Uiso       1.00
        N1          N  0.3008941  0.3788268  0.4596690    0.00000       Uiso       1.00
        O1          O  0.3241302  0.3882464  0.4699484    0.00000       Uiso       1.00
        O2          O  0.2889040  0.3570424  0.4709080    0.00000       Uiso       1.00
        N2          N  0.5376084  0.4596762  0.3788357    0.00000       Uiso       1.00
        O3          O  0.5340719  0.4699549  0.3882557    0.00000       Uiso       1.00
        O4          O  0.5390539  0.4709162  0.3570519    0.00000       Uiso       1.00
        N3          N  0.5403252  0.6991005  0.4623935    0.00000       Uiso       1.00
        O5          O  0.5300462  0.6758649  0.4659300    0.00000       Uiso       1.00
        O6          O  0.5290852  0.7110893  0.4609486    0.00000       Uiso       1.00
        N4          N  0.6211700  0.4623974  0.6991036    0.00000       Uiso       1.00
        O7          O  0.6117504  0.4659343  0.6758679    0.00000       Uiso       1.00
        O8          O  0.6429552  0.4609542  0.7110936    0.00000       Uiso       1.00
       C26          C  0.3298581  0.4315512  0.4313690    0.00000       Uiso       1.00
       C27          C  0.3413656  0.4285577  0.4581843    0.00000       Uiso       1.00
       C28          C  0.3684808  0.4398455  0.4693800    0.00000       Uiso       1.00
       C29          C  0.3463582  0.4462169  0.4161161    0.00000       Uiso       1.00
       C30          C  0.3734674  0.4574827  0.4273064    0.00000       Uiso       1.00
       C31          C  0.3850051  0.4545000  0.4541348    0.00000       Uiso       1.00
       H13          H  0.5319127  0.5024177  0.6144857    0.00000       Uiso       1.00
       H14          H  0.3383546  0.4485517  0.3955451    0.00000       Uiso       1.00
       H15          H  0.3292971  0.4178245  0.4704736    0.00000       Uiso       1.00
       C32          C  0.5684453  0.4669360  0.6701394    0.00000       Uiso       1.00
       C33          C  0.5537823  0.4840255  0.6536387    0.00000       Uiso       1.00
       C34          C  0.5425176  0.4886800  0.6265299    0.00000       Uiso       1.00
       C35          C  0.5714374  0.4546199  0.6586331    0.00000       Uiso       1.00
       C36          C  0.5601503  0.4592527  0.6315182    0.00000       Uiso       1.00
       C37          C  0.5454988  0.4763702  0.6149935    0.00000       Uiso       1.00
       H16          H  0.4975839  0.4150151  0.4680892    0.00000       Uiso       1.00
       H17          H  0.5821693  0.4409942  0.6707022    0.00000       Uiso       1.00
       H18          H  0.5514502  0.4942604  0.6616418    0.00000       Uiso       1.00
       C38          C  0.5686281  0.6701388  0.4669369    0.00000       Uiso       1.00
       C39          C  0.5838794  0.6536382  0.4840342    0.00000       Uiso       1.00
       C40          C  0.5726887  0.6265293  0.4886866    0.00000       Uiso       1.00
       C41          C  0.5418150  0.6586331  0.4546115    0.00000       Uiso       1.00
       C42          C  0.5306196  0.6315188  0.4592411    0.00000       Uiso       1.00
       C43          C  0.5458635  0.6149940  0.4763665    0.00000       Uiso       1.00
       H19          H  0.3855113  0.4680929  0.4150071    0.00000       Uiso       1.00
       H20          H  0.5295280  0.6707031  0.4409788    0.00000       Uiso       1.00
       H21          H  0.6044485  0.6616410  0.4942742    0.00000       Uiso       1.00
       C44          C  0.5330665  0.4313737  0.4315586    0.00000       Uiso       1.00
       C45          C  0.5453893  0.4581869  0.4285743    0.00000       Uiso       1.00
       C46          C  0.5407602  0.4693818  0.4398640    0.00000       Uiso       1.00
       C47          C  0.5159721  0.4161213  0.4462166    0.00000       Uiso       1.00
       C48          C  0.5113205  0.4273114  0.4574831    0.00000       Uiso       1.00
       C49          C  0.5236377  0.4541369  0.4545108    0.00000       Uiso       1.00
       H22          H  0.5849838  0.6144822  0.5024271    0.00000       Uiso       1.00
       H23          H  0.5057342  0.3955519  0.4485455    0.00000       Uiso       1.00
       H24          H  0.5590200  0.4704752  0.4178477    0.00000       Uiso       1.00
        N5          N  0.3796321  0.4364645  0.4981118    0.00000       Uiso       1.00
        O9          O  0.4028899  0.4459790  0.5082187    0.00000       Uiso       1.00
       O10          O  0.3653126  0.4242425  0.5110288    0.00000       Uiso       1.00
        N6          N  0.5549722  0.4981106  0.4364939    0.00000       Uiso       1.00
       O11          O  0.5513391  0.5082182  0.4460096    0.00000       Uiso       1.00
       O12          O  0.5699933  0.5110245  0.4242794    0.00000       Uiso       1.00
        N7          N  0.5018914  0.6203703  0.4450267    0.00000       Uiso       1.00
       O13          O  0.4917848  0.5971133  0.4486610    0.00000       Uiso       1.00
       O14          O  0.4889768  0.6346911  0.4300033    0.00000       Uiso       1.00
        N8          N  0.5635289  0.4450537  0.6203648    0.00000       Uiso       1.00
       O15          O  0.5540143  0.4486923  0.5971071    0.00000       Uiso       1.00
       O16          O  0.5757501  0.4300384  0.6346826    0.00000       Uiso       1.00
       C50          C  0.4140681  0.4664384  0.4661439    0.00000       Uiso       1.00
       C51          C  0.4279504  0.4531915  0.4914217    0.00000       Uiso       1.00
       C52          C  0.4551578  0.4640801  0.5024404    0.00000       Uiso       1.00
       C53          C  0.4283696  0.4908929  0.4522201    0.00000       Uiso       1.00
       C54          C  0.4555693  0.5017609  0.4632356    0.00000       Uiso       1.00
       C55          C  0.4695252  0.4890645  0.4889762    0.00000       Uiso       1.00
       H25          H  0.4798592  0.4942956  0.5341758    0.00000       Uiso       1.00
       H26          H  0.4185091  0.5017093  0.4326774    0.00000       Uiso       1.00
       H27          H  0.4178647  0.4339113  0.5024201    0.00000       Uiso       1.00
       C56          C  0.5335614  0.4814854  0.5859313    0.00000       Uiso       1.00
       C57          C  0.5091073  0.4852566  0.5716301    0.00000       Uiso       1.00
       C58          C  0.4982395  0.4905754  0.5444298    0.00000       Uiso       1.00
       C59          C  0.5468087  0.4833370  0.5720498    0.00000       Uiso       1.00
       C60          C  0.5359202  0.4886395  0.5448422    0.00000       Uiso       1.00
       C61          C  0.5109364  0.4914882  0.5304744    0.00000       Uiso       1.00
       H28          H  0.5056953  0.4513826  0.5201406    0.00000       Uiso       1.00
       H29          H  0.5660902  0.4815357  0.5821350    0.00000       Uiso       1.00
       H30          H  0.4982943  0.4841230  0.5814935    0.00000       Uiso       1.00
       C62          C  0.5338560  0.5859321  0.4814825    0.00000       Uiso       1.00
       C63          C  0.5477816  0.5716313  0.4852563    0.00000       Uiso       1.00
       C64          C  0.5367668  0.5444319  0.4905749    0.00000       Uiso       1.00
       C65          C  0.5085787  0.5720504  0.4833336    0.00000       Uiso       1.00
       C66          C  0.4975597  0.5448435  0.4886345    0.00000       Uiso       1.00
       C67          C  0.5110250  0.5304765  0.4914845    0.00000       Uiso       1.00
       H31          H  0.4658206  0.5201444  0.4513896    0.00000       Uiso       1.00
       H32          H  0.4975809  0.5821385  0.4815257    0.00000       Uiso       1.00
       H33          H  0.5673243  0.5814920  0.4841220    0.00000       Uiso       1.00
       C68          C  0.5185204  0.4661436  0.4664489    0.00000       Uiso       1.00
       C69          C  0.5166722  0.4914221  0.4532023    0.00000       Uiso       1.00
       C70          C  0.5113683  0.5024406  0.4640870    0.00000       Uiso       1.00
       C71          C  0.5147406  0.4522165  0.4908995    0.00000       Uiso       1.00
       C72          C  0.5094194  0.4632318  0.5017626    0.00000       Uiso       1.00
       C73          C  0.5085129  0.4889745  0.4890671    0.00000       Uiso       1.00
       H34          H  0.5486157  0.5341823  0.4942920    0.00000       Uiso       1.00
       H35          H  0.5158707  0.4326722  0.5017169    0.00000       Uiso       1.00
       H36          H  0.5184857  0.5024220  0.4339261    0.00000       Uiso       1.00
        N9          N  0.4689858  0.4480212  0.5289422    0.00000       Uiso       1.00
       O17          O  0.4923902  0.4567644  0.5390243    0.00000       Uiso       1.00
       O18          O  0.4566646  0.4264114  0.5400976    0.00000       Uiso       1.00
       N10          N  0.5079883  0.5289446  0.4480318    0.00000       Uiso       1.00
       O19          O  0.5034060  0.5390233  0.4567749    0.00000       Uiso       1.00
       O20          O  0.5098620  0.5401049  0.4264250    0.00000       Uiso       1.00
       N11          N  0.4710550  0.5310163  0.4920137    0.00000       Uiso       1.00
       O21          O  0.4609732  0.5076123  0.4965934    0.00000       Uiso       1.00
       O22          O  0.4598977  0.5433376  0.4901428    0.00000       Uiso       1.00
       N12          N  0.5519782  0.4920300  0.5310106    0.00000       Uiso       1.00
       O23          O  0.5432332  0.4966112  0.5076062    0.00000       Uiso       1.00
       O24          O  0.5735896  0.4901668  0.5433286    0.00000       Uiso       1.00
       C74          C  0.0438225  0.8938248  0.3962604    0.00000       Uiso       1.00
       C75          C  0.0572313  0.8957462  0.4213297    0.00000       Uiso       1.00
       C76          C  0.0458032  0.8998526  0.4328367    0.00000       Uiso       1.00
       C77          C  0.0187528  0.8957452  0.3828514    0.00000       Uiso       1.00
       C78          C  0.0072702  0.8999648  0.3941893    0.00000       Uiso       1.00
       C79          C  0.0206431  0.9021558  0.4193797    0.00000       Uiso       1.00
       H37          H  0.9789113  0.8233734  0.7032573    0.00000       Uiso       1.00
       H38          H  0.0075108  0.8941562  0.3624147    0.00000       Uiso       1.00
       H39          H  0.0776681  0.8941581  0.4325720    0.00000       Uiso       1.00
       C80          C  0.9863116  0.8363133  0.7537675    0.00000       Uiso       1.00
       C81          C  0.9843906  0.8229048  0.7401859    0.00000       Uiso       1.00
       C82          C  0.9801707  0.8342430  0.7131454    0.00000       Uiso       1.00
       C83          C  0.9843906  0.8613822  0.7401859    0.00000       Uiso       1.00
       C84          C  0.9802843  0.8728896  0.7131442    0.00000       Uiso       1.00
       C85          C  0.9779805  0.8594332  0.6991372    0.00000       Uiso       1.00
       H40          H  0.0567621  0.1433123  0.4523103    0.00000       Uiso       1.00
       H41          H  0.9859793  0.8726240  0.7509692    0.00000       Uiso       1.00
       H42          H  0.9859793  0.8024686  0.7509692    0.00000       Uiso       1.00
       C86          C  0.6863052  0.8363053  0.4537610    0.00000       Uiso       1.00
       C87          C  0.6998871  0.8613746  0.4556824    0.00000       Uiso       1.00
       C88          C  0.7269284  0.8728573  0.4599038    0.00000       Uiso       1.00
       C89          C  0.6998871  0.8228973  0.4556824    0.00000       Uiso       1.00
       C90          C  0.7269294  0.8343262  0.4597888    0.00000       Uiso       1.00
       C91          C  0.7409366  0.8594856  0.4620937    0.00000       Uiso       1.00
       H43          H  0.9877719  0.9012234  0.3833194    0.00000       Uiso       1.00
       H44          H  0.6891036  0.8024606  0.4540935    0.00000       Uiso       1.00
       H45          H  0.6891037  0.8726161  0.4540935    0.00000       Uiso       1.00
       C92          C  0.0438219  0.1938224  0.3962605    0.00000       Uiso       1.00
       C93          C  0.0187523  0.1802401  0.3828514    0.00000       Uiso       1.00
       C94          C  0.0072442  0.1531981  0.3942797    0.00000       Uiso       1.00
       C95          C  0.0572307  0.1802412  0.4213298    0.00000       Uiso       1.00
       C96          C  0.0458923  0.1532004  0.4328119    0.00000       Uiso       1.00
       C97          C  0.0207013  0.1391917  0.4194393    0.00000       Uiso       1.00
       H46          H  0.7368175  0.8923556  0.4611644    0.00000       Uiso       1.00
       C98          C  0.9400644  0.9400665  0.5000122    0.00000       Uiso       1.00
       H47          H  0.0776676  0.1910249  0.4325721    0.00000       Uiso       1.00
       H48          H  0.0075102  0.1910230  0.3624148    0.00000       Uiso       1.00
       N13          N  0.0612364  0.9024646  0.4596892    0.00000       Uiso       1.00
       O25          O  0.0518171  0.9060021  0.4699678    0.00000       Uiso       1.00
       O26          O  0.0830210  0.9010202  0.4709291    0.00000       Uiso       1.00
       N14          N  0.9803910  0.1391662  0.3788475    0.00000       Uiso       1.00
       O27          O  0.9701119  0.1159306  0.3882673    0.00000       Uiso       1.00
       O28          O  0.9691507  0.1511552  0.3570634    0.00000       Uiso       1.00
       N15          N  0.7409611  0.8188952  0.4623988    0.00000       Uiso       1.00
       O29          O  0.7641971  0.8283158  0.4659362    0.00000       Uiso       1.00
       O30          O  0.7289715  0.7971107  0.4609539    0.00000       Uiso       1.00
       N16          N  0.9776730  0.8997418  0.6991131    0.00000       Uiso       1.00
       O31          O  0.9741356  0.9100205  0.6758776    0.00000       Uiso       1.00
       O32          O  0.9791168  0.9109807  0.7111025    0.00000       Uiso       1.00
       C99          C  0.0085113  0.9070036  0.4313870    0.00000       Uiso       1.00
      C100          C  0.0115053  0.8946897  0.4582022    0.00000       Uiso       1.00
      C101          C  0.0002179  0.8993217  0.4693968    0.00000       Uiso       1.00
      C102          C  0.9938461  0.9240909  0.4161334    0.00000       Uiso       1.00
      C103          C  0.9825807  0.9287444  0.4273226    0.00000       Uiso       1.00
      C104          C  0.9855639  0.9164369  0.4541508    0.00000       Uiso       1.00
       H49          H  0.9376491  0.8550785  0.6144966    0.00000       Uiso       1.00
       H50          H  0.9915110  0.9343233  0.3955625    0.00000       Uiso       1.00
       H51          H  0.0222384  0.8810650  0.4704921    0.00000       Uiso       1.00
      C105          C  0.9731328  0.8714411  0.6701502    0.00000       Uiso       1.00
      C106          C  0.9560423  0.8561883  0.6536494    0.00000       Uiso       1.00
      C107          C  0.9513874  0.8673776  0.6265407    0.00000       Uiso       1.00
      C108          C  0.9854493  0.8982560  0.6586441    0.00000       Uiso       1.00
      C109          C  0.9808160  0.9094505  0.6315294    0.00000       Uiso       1.00
      C110          C  0.9636976  0.8942055  0.6150047    0.00000       Uiso       1.00
       H52          H  0.0250519  0.0545495  0.4681032    0.00000       Uiso       1.00
       H53          H  0.9990757  0.9105452  0.6707133    0.00000       Uiso       1.00
       H54          H  0.9458072  0.8356180  0.6616523    0.00000       Uiso       1.00
      C111          C  0.7699243  0.8716180  0.4669423    0.00000       Uiso       1.00
      C112          C  0.7864258  0.8862734  0.4840396    0.00000       Uiso       1.00
      C113          C  0.8135350  0.8975396  0.4886931    0.00000       Uiso       1.00
      C114          C  0.7814296  0.8686356  0.4546179    0.00000       Uiso       1.00
      C115          C  0.8085443  0.8799254  0.4592485    0.00000       Uiso       1.00
      C116          C  0.8250700  0.8945695  0.4763740    0.00000       Uiso       1.00
       H55          H  0.9719706  0.9424775  0.4150227    0.00000       Uiso       1.00
       H56          H  0.7693589  0.8579106  0.4409852    0.00000       Uiso       1.00
       H57          H  0.7784234  0.8886001  0.4942789    0.00000       Uiso       1.00
      C117          C  0.0086937  0.1102045  0.4315713    0.00000       Uiso       1.00
      C118          C  0.9818805  0.0986980  0.4285860    0.00000       Uiso       1.00
      C119          C  0.9706853  0.0715839  0.4398755    0.00000       Uiso       1.00
      C120          C  0.0239460  0.0937045  0.4462301    0.00000       Uiso       1.00
      C121          C  0.0127556  0.0665959  0.4574965    0.00000       Uiso       1.00
      C122          C  0.9859301  0.0550594  0.4545231    0.00000       Uiso       1.00
       H58          H  0.8255829  0.9081420  0.5024335    0.00000       Uiso       1.00
       H59          H  0.0445157  0.1017074  0.4485599    0.00000       Uiso       1.00
       H60          H  0.9695923  0.1107671  0.4178586    0.00000       Uiso       1.00
       N17          N  0.0035993  0.8851227  0.4981284    0.00000       Uiso       1.00
       O33          O  0.9940856  0.8887594  0.5082345    0.00000       Uiso       1.00
       O34          O  0.0158213  0.8701082  0.5110461    0.00000       Uiso       1.00
       N18          N  0.9419561  0.0604368  0.4365042    0.00000       Uiso       1.00
       O35          O  0.9318482  0.0371801  0.4460198    0.00000       Uiso       1.00
       O36          O  0.9290422  0.0747586  0.4242889    0.00000       Uiso       1.00
       N19          N  0.8196923  0.8765596  0.4450352    0.00000       Uiso       1.00
       O37          O  0.8429497  0.8860760  0.4486704    0.00000       Uiso       1.00
       O38          O  0.8053707  0.8643469  0.4300117    0.00000       Uiso       1.00
       N20          N  0.9950154  0.9381819  0.6203763    0.00000       Uiso       1.00
       O39          O  0.9913765  0.9482862  0.5971187    0.00000       Uiso       1.00
       O40          O  0.0100310  0.9511014  0.6346942    0.00000       Uiso       1.00
      C123          C  0.9736260  0.9215528  0.4661588    0.00000       Uiso       1.00
      C124          C  0.9868736  0.9234049  0.4914366    0.00000       Uiso       1.00
      C125          C  0.9759855  0.9287055  0.5024543    0.00000       Uiso       1.00
      C126          C  0.9491712  0.9253233  0.4522339    0.00000       Uiso       1.00
      C127          C  0.9383037  0.9306400  0.4632485    0.00000       Uiso       1.00
      C128          C  0.9510008  0.9315524  0.4889890    0.00000       Uiso       1.00
       H61          H  0.9457698  0.8914558  0.5341881    0.00000       Uiso       1.00
       H62          H  0.9383543  0.9241886  0.4326912    0.00000       Uiso       1.00
       H63          H  0.0061537  0.9216012  0.5024358    0.00000       Uiso       1.00
      C129          C  0.9585820  0.9062145  0.5859426    0.00000       Uiso       1.00
      C130          C  0.9548100  0.8922897  0.5716419    0.00000       Uiso       1.00
      C131          C  0.9494907  0.9033029  0.5444418    0.00000       Uiso       1.00
      C132          C  0.9567306  0.9314919  0.5720608    0.00000       Uiso       1.00
      C133          C  0.9514277  0.9425082  0.5448533    0.00000       Uiso       1.00
      C134          C  0.9485782  0.9290427  0.5304860    0.00000       Uiso       1.00
       H64          H  0.9886848  0.9742420  0.5201535    0.00000       Uiso       1.00
       H65          H  0.9585325  0.9424902  0.5821455    0.00000       Uiso       1.00
       H66          H  0.9559433  0.8727466  0.5815057    0.00000       Uiso       1.00
      C135          C  0.8541324  0.9065084  0.4814910    0.00000       Uiso       1.00
      C136          C  0.8684339  0.9309617  0.4852649    0.00000       Uiso       1.00
      C137          C  0.8956338  0.9418281  0.4905845    0.00000       Uiso       1.00
      C138          C  0.8680137  0.8932614  0.4833431    0.00000       Uiso       1.00
      C139          C  0.8952211  0.9041488  0.4886451    0.00000       Uiso       1.00
      C140          C  0.9095888  0.9291319  0.4914951    0.00000       Uiso       1.00
       H67          H  0.9199199  0.9343536  0.4514017    0.00000       Uiso       1.00
       H68          H  0.8579251  0.8739828  0.4815352    0.00000       Uiso       1.00
       H69          H  0.8585734  0.9417783  0.4841298    0.00000       Uiso       1.00
      C141          C  0.9739230  0.0259970  0.4664610    0.00000       Uiso       1.00
      C142          C  0.9486436  0.0121161  0.4532138    0.00000       Uiso       1.00
      C143          C  0.9376254  0.9849092  0.4640984    0.00000       Uiso       1.00
      C144          C  0.9878503  0.0116939  0.4909121    0.00000       Uiso       1.00
      C145          C  0.9768353  0.9844946  0.5017751    0.00000       Uiso       1.00
      C146          C  0.9510919  0.9705402  0.4890789    0.00000       Uiso       1.00
       H70          H  0.9058840  0.9602103  0.4943015    0.00000       Uiso       1.00
       H71          H  0.0073948  0.0215516  0.5017299    0.00000       Uiso       1.00
       H72          H  0.9376436  0.0222057  0.4339372    0.00000       Uiso       1.00
       N21          N  0.9920452  0.9320914  0.5289562    0.00000       Uiso       1.00
       O41          O  0.9833025  0.9366710  0.5390373    0.00000       Uiso       1.00
       O42          O  0.0136548  0.9302248  0.5401125    0.00000       Uiso       1.00
       N22          N  0.9111207  0.9710796  0.4480426    0.00000       Uiso       1.00
       O43          O  0.9010414  0.9476752  0.4567855    0.00000       Uiso       1.00
       O44          O  0.8999600  0.9833996  0.4264354    0.00000       Uiso       1.00
       N23          N  0.9090479  0.8880919  0.4920253    0.00000       Uiso       1.00
       O45          O  0.9324523  0.8968346  0.4966060    0.00000       Uiso       1.00
       O46          O  0.8967260  0.8664834  0.4901544    0.00000       Uiso       1.00
       N24          N  0.9480375  0.9690076  0.5310211    0.00000       Uiso       1.00
       O47          O  0.9434559  0.9790854  0.5076169    0.00000       Uiso       1.00
       O48          O  0.9499015  0.9801649  0.5433387    0.00000       Uiso       1.00
      C147          C  0.5462445  0.1938092  0.3962472    0.00000       Uiso       1.00
      C148          C  0.5443234  0.1802275  0.4213161    0.00000       Uiso       1.00
      C149          C  0.5402167  0.1531857  0.4328233    0.00000       Uiso       1.00
      C150          C  0.5443234  0.1802275  0.3828388    0.00000       Uiso       1.00
      C151          C  0.5401034  0.1531870  0.3941768    0.00000       Uiso       1.00
      C152          C  0.5379127  0.1391786  0.4193669    0.00000       Uiso       1.00
       H73          H  0.6166969  0.8923530  0.7032476    0.00000       Uiso       1.00
       H74          H  0.5459121  0.1910107  0.3624025    0.00000       Uiso       1.00
       H75          H  0.5459121  0.1910108  0.4325579    0.00000       Uiso       1.00
      C153          C  0.6037570  0.8363031  0.7537574    0.00000       Uiso       1.00
      C154          C  0.6171657  0.8613724  0.7401761    0.00000       Uiso       1.00
      C155          C  0.6058272  0.8728545  0.7131354    0.00000       Uiso       1.00
      C156          C  0.5786873  0.8228940  0.7401751    0.00000       Uiso       1.00
      C157          C  0.5671795  0.8343217  0.7131332    0.00000       Uiso       1.00
      C158          C  0.5806361  0.8594814  0.6991267    0.00000       Uiso       1.00
       H76          H  0.2967506  0.9012057  0.4522900    0.00000       Uiso       1.00
       H77          H  0.5674453  0.8024574  0.7509580    0.00000       Uiso       1.00
       H78          H  0.6376026  0.8726147  0.7509599    0.00000       Uiso       1.00
      C159          C  0.6037565  0.8363031  0.4537588    0.00000       Uiso       1.00
      C160          C  0.5786869  0.8228940  0.4556791    0.00000       Uiso       1.00
      C161          C  0.5672046  0.8342316  0.4598995    0.00000       Uiso       1.00
      C162          C  0.6171653  0.8613724  0.4556802    0.00000       Uiso       1.00
      C163          C  0.6057368  0.8728798  0.4597856    0.00000       Uiso       1.00
      C164          C  0.5805771  0.8594224  0.4620895    0.00000       Uiso       1.00
       H79          H  0.5388442  0.1432988  0.3833075    0.00000       Uiso       1.00
       H80          H  0.6376022  0.8726147  0.4540921    0.00000       Uiso       1.00
       H81          H  0.5674448  0.8024573  0.4540902    0.00000       Uiso       1.00
      C165          C  0.2462388  0.8938035  0.3962393    0.00000       Uiso       1.00
      C166          C  0.2598207  0.8957248  0.3828312    0.00000       Uiso       1.00
      C167          C  0.2868631  0.8998309  0.3942605    0.00000       Uiso       1.00
      C168          C  0.2598207  0.8957249  0.4213085    0.00000       Uiso       1.00
      C169          C  0.2868619  0.8999456  0.4327917    0.00000       Uiso       1.00
      C170          C  0.3008703  0.9021356  0.4194202    0.00000       Uiso       1.00
       H82          H  0.5477062  0.8233616  0.4611593    0.00000       Uiso       1.00
      C171          C  0.4999995  0.9400540  0.5000004    0.00000       Uiso       1.00
       H83          H  0.2490373  0.8941360  0.4325500    0.00000       Uiso       1.00
       H84          H  0.2490372  0.8941360  0.3623946    0.00000       Uiso       1.00
       N25          N  0.5376050  0.1391547  0.4596753    0.00000       Uiso       1.00
       O49          O  0.5340672  0.1159191  0.4699540    0.00000       Uiso       1.00
       O50          O  0.5390501  0.1511445  0.4709147    0.00000       Uiso       1.00
       N26          N  0.3008947  0.9024410  0.3788294    0.00000       Uiso       1.00
       O51          O  0.3241306  0.9059781  0.3882501    0.00000       Uiso       1.00
       O52          O  0.2889050  0.9009952  0.3570452    0.00000       Uiso       1.00
       N27          N  0.6211686  0.8997332  0.4623956    0.00000       Uiso       1.00
       O53          O  0.6117484  0.9100116  0.4659321    0.00000       Uiso       1.00
       O54          O  0.6429534  0.9109734  0.4609517    0.00000       Uiso       1.00
       N28          N  0.5403265  0.8188884  0.6991015    0.00000       Uiso       1.00
       O55          O  0.5300474  0.8283075  0.6758658    0.00000       Uiso       1.00
       O56          O  0.5290874  0.7971036  0.7110906    0.00000       Uiso       1.00
      C172          C  0.5330644  0.1101913  0.4313744    0.00000       Uiso       1.00
      C173          C  0.5453788  0.0986844  0.4581898    0.00000       Uiso       1.00
      C174          C  0.5407463  0.0715699  0.4693846    0.00000       Uiso       1.00
      C175          C  0.5159764  0.0936912  0.4161207    0.00000       Uiso       1.00
      C176          C  0.5113223  0.0665826  0.4273101    0.00000       Uiso       1.00
      C177          C  0.5236303  0.0550456  0.4541385    0.00000       Uiso       1.00
       H85          H  0.5849899  0.9081445  0.6144872    0.00000       Uiso       1.00
       H86          H  0.5057436  0.1016942  0.3955496    0.00000       Uiso       1.00
       H87          H  0.5590042  0.1107531  0.4704798    0.00000       Uiso       1.00
      C178          C  0.5686278  0.8716125  0.6701394    0.00000       Uiso       1.00
      C179          C  0.5838805  0.8862755  0.6536396    0.00000       Uiso       1.00
      C180          C  0.5726907  0.8975395  0.6265307    0.00000       Uiso       1.00
      C181          C  0.5418125  0.8686197  0.6586323    0.00000       Uiso       1.00
      C182          C  0.5306175  0.8799062  0.6315174    0.00000       Uiso       1.00
      C183          C  0.5458626  0.8945577  0.6149935    0.00000       Uiso       1.00
       H88          H  0.3855149  0.9424669  0.4680862    0.00000       Uiso       1.00
       H89          H  0.5295234  0.8578877  0.6707008    0.00000       Uiso       1.00
       H90          H  0.6044511  0.8886081  0.6616431    0.00000       Uiso       1.00
      C184          C  0.5684451  0.8714295  0.4669369    0.00000       Uiso       1.00
      C185          C  0.5537897  0.8561783  0.4840334    0.00000       Uiso       1.00
      C186          C  0.5425241  0.8673683  0.4886858    0.00000       Uiso       1.00
      C187          C  0.5714279  0.8982420  0.4546123    0.00000       Uiso       1.00
      C188          C  0.5601386  0.9094368  0.4592419    0.00000       Uiso       1.00
      C189          C  0.5454946  0.8941929  0.4763665    0.00000       Uiso       1.00
       H91          H  0.4975885  0.0545386  0.4150101    0.00000       Uiso       1.00
       H92          H  0.5821529  0.9105290  0.4409803    0.00000       Uiso       1.00
       H93          H  0.5514629  0.8356097  0.4942729    0.00000       Uiso       1.00
      C190          C  0.3298580  0.9069837  0.4315532    0.00000       Uiso       1.00
      C191          C  0.3413641  0.8946615  0.4285689    0.00000       Uiso       1.00
      C192          C  0.3684786  0.8992913  0.4398594    0.00000       Uiso       1.00
      C193          C  0.3463588  0.9240780  0.4462121    0.00000       Uiso       1.00
      C194          C  0.3734679  0.9287303  0.4574794    0.00000       Uiso       1.00
      C195          C  0.3850039  0.9164138  0.4545072    0.00000       Uiso       1.00
       H94          H  0.5319217  0.8550733  0.5024257    0.00000       Uiso       1.00
       H95          H  0.3383563  0.9343154  0.4485411    0.00000       Uiso       1.00
       H96          H  0.3292942  0.8810309  0.4178416    0.00000       Uiso       1.00
       N29          N  0.5549459  0.0604193  0.4981165    0.00000       Uiso       1.00
       O57          O  0.5513088  0.0371620  0.5082227    0.00000       Uiso       1.00
       O58          O  0.5699611  0.0747389  0.5110343    0.00000       Uiso       1.00
       N30          N  0.3796252  0.8850800  0.4364892    0.00000       Uiso       1.00
       O59          O  0.4028822  0.8887135  0.4460057    0.00000       Uiso       1.00
       O60          O  0.3653026  0.8700588  0.4242739    0.00000       Uiso       1.00
       N31          N  0.5635048  0.9381642  0.4450284    0.00000       Uiso       1.00
       O61          O  0.5539888  0.9482704  0.4486627    0.00000       Uiso       1.00
       O62          O  0.5757174  0.9510788  0.4300056    0.00000       Uiso       1.00
       N32          N  0.5018858  0.8765269  0.6203632    0.00000       Uiso       1.00
       O63          O  0.4917810  0.8860409  0.5971054    0.00000       Uiso       1.00
       O64          O  0.4889663  0.8643057  0.6346803    0.00000       Uiso       1.00
      C196          C  0.5185139  0.0259833  0.4661467    0.00000       Uiso       1.00
      C197          C  0.5166621  0.0121013  0.4914241    0.00000       Uiso       1.00
      C198          C  0.5113618  0.9848953  0.5024419    0.00000       Uiso       1.00
      C199          C  0.5147427  0.0116820  0.4522224    0.00000       Uiso       1.00
      C200          C  0.5094262  0.9844837  0.4632370    0.00000       Uiso       1.00
      C201          C  0.5085142  0.9705281  0.4889772    0.00000       Uiso       1.00
       H97          H  0.5486116  0.9601955  0.5341775    0.00000       Uiso       1.00
       H98          H  0.5158771  0.0215422  0.4326800    0.00000       Uiso       1.00
       H99          H  0.5184664  0.0221868  0.5024228    0.00000       Uiso       1.00
      C202          C  0.5338530  0.9064945  0.5859314    0.00000       Uiso       1.00
      C203          C  0.5477781  0.9309483  0.5716311    0.00000       Uiso       1.00
      C204          C  0.5367644  0.9418154  0.5444309    0.00000       Uiso       1.00
      C205          C  0.5085748  0.8932469  0.5720488    0.00000       Uiso       1.00
      C206          C  0.4975581  0.9041347  0.5448412    0.00000       Uiso       1.00
      C207          C  0.5110239  0.9291182  0.5304744    0.00000       Uiso       1.00
      H100          H  0.4658245  0.9343579  0.5201396    0.00000       Uiso       1.00
      H101          H  0.4975763  0.8739655  0.5821332    0.00000       Uiso       1.00
      H102          H  0.5673217  0.9417615  0.5814953    0.00000       Uiso       1.00
      C208          C  0.5335562  0.9061998  0.4814825    0.00000       Uiso       1.00
      C209          C  0.5091026  0.8922739  0.4852553    0.00000       Uiso       1.00
      C210          C  0.4982366  0.9032881  0.4905739    0.00000       Uiso       1.00
      C211          C  0.5468040  0.9314768  0.4833346    0.00000       Uiso       1.00
      C212          C  0.5359169  0.9424951  0.4886355    0.00000       Uiso       1.00
      C213          C  0.5109336  0.9290295  0.4914845    0.00000       Uiso       1.00
      H103          H  0.5057120  0.9742325  0.4513906    0.00000       Uiso       1.00
      H104          H  0.5660827  0.9424748  0.4815275    0.00000       Uiso       1.00
      H105          H  0.4982854  0.8727313  0.4841202    0.00000       Uiso       1.00
      C214          C  0.4140669  0.9215317  0.4664461    0.00000       Uiso       1.00
      C215          C  0.4279474  0.9233803  0.4532000    0.00000       Uiso       1.00
      C216          C  0.4551555  0.9286847  0.4640856    0.00000       Uiso       1.00
      C217          C  0.4283707  0.9253119  0.4908972    0.00000       Uiso       1.00
      C218          C  0.4555712  0.9306335  0.5017613    0.00000       Uiso       1.00
      C219          C  0.4695252  0.9315404  0.4890661    0.00000       Uiso       1.00
      H106          H  0.4798543  0.8914390  0.4942901    0.00000       Uiso       1.00
      H107          H  0.4185133  0.9241814  0.5017143    0.00000       Uiso       1.00
      H108          H  0.4178572  0.9215665  0.4339234    0.00000       Uiso       1.00
       N33          N  0.5079764  0.9710675  0.5289433    0.00000       Uiso       1.00
       O65          O  0.5033963  0.9476637  0.5390246    0.00000       Uiso       1.00
       O66          O  0.5098435  0.9833884  0.5400991    0.00000       Uiso       1.00
       N34          N  0.4689847  0.9320651  0.4480308    0.00000       Uiso       1.00
       O67          O  0.4923895  0.9366477  0.4567746    0.00000       Uiso       1.00
       O68          O  0.4566641  0.9301910  0.4264236    0.00000       Uiso       1.00
       N35          N  0.5519747  0.9689995  0.4920158    0.00000       Uiso       1.00
       O69          O  0.5432324  0.9790809  0.4965957    0.00000       Uiso       1.00
       O70          O  0.5735834  0.9801572  0.4901458    0.00000       Uiso       1.00
       N36          N  0.4710578  0.8880764  0.5310084    0.00000       Uiso       1.00
       O71          O  0.4609797  0.8968209  0.5076041    0.00000       Uiso       1.00
       O72          O  0.4599003  0.8664653  0.5433256    0.00000       Uiso       1.00
      C220          C  0.2462389  0.3962389  0.8938043    0.00000       Uiso       1.00
      C221          C  0.2598209  0.4213082  0.8957256    0.00000       Uiso       1.00
      C222          C  0.2868634  0.4328162  0.8998330    0.00000       Uiso       1.00
      C223          C  0.2598208  0.3828309  0.8957256    0.00000       Uiso       1.00
      C224          C  0.2868621  0.3941698  0.8999463    0.00000       Uiso       1.00
      C225          C  0.3008707  0.4193603  0.9021373    0.00000       Uiso       1.00
      H109          H  0.5477060  0.7032455  0.8233626    0.00000       Uiso       1.00
      H110          H  0.2490374  0.3623943  0.8941367    0.00000       Uiso       1.00
      H111          H  0.2490374  0.4325497  0.8941367    0.00000       Uiso       1.00
      C226          C  0.6037571  0.7537572  0.8363036    0.00000       Uiso       1.00
      C227          C  0.5786875  0.7401749  0.8228946    0.00000       Uiso       1.00
      C228          C  0.5672048  0.7131341  0.8342326    0.00000       Uiso       1.00
      C229          C  0.6171659  0.7401760  0.8613730    0.00000       Uiso       1.00
      C230          C  0.6057376  0.7131340  0.8728802    0.00000       Uiso       1.00
      C231          C  0.5805775  0.6991265  0.8594232    0.00000       Uiso       1.00
      H112          H  0.5388435  0.4522959  0.1432990    0.00000       Uiso       1.00
      H113          H  0.6376027  0.7509596  0.8726153    0.00000       Uiso       1.00
      H114          H  0.5674454  0.7509578  0.8024580    0.00000       Uiso       1.00
      C232          C  0.6037568  0.4537586  0.8363038    0.00000       Uiso       1.00
      C233          C  0.6171656  0.4556799  0.8613731    0.00000       Uiso       1.00
      C234          C  0.6058274  0.4599003  0.8728548    0.00000       Uiso       1.00
      C235          C  0.5786871  0.4556789  0.8228947    0.00000       Uiso       1.00
      C236          C  0.5671791  0.4597842  0.8343227    0.00000       Uiso       1.00
      C237          C  0.5806363  0.4620892  0.8594820    0.00000       Uiso       1.00
      H115          H  0.2967504  0.3833007  0.9012057    0.00000       Uiso       1.00
      H116          H  0.5674450  0.4540899  0.8024581    0.00000       Uiso       1.00
      H117          H  0.6376024  0.4540918  0.8726155    0.00000       Uiso       1.00
      C238          C  0.5462444  0.3962467  0.1938096    0.00000       Uiso       1.00
      C239          C  0.5443234  0.3828382  0.1802280    0.00000       Uiso       1.00
      C240          C  0.5402179  0.3942667  0.1531861    0.00000       Uiso       1.00
      C241          C  0.5443234  0.4213156  0.1802280    0.00000       Uiso       1.00
      C242          C  0.5401033  0.4327978  0.1531874    0.00000       Uiso       1.00
      C243          C  0.5379136  0.4194259  0.1391793    0.00000       Uiso       1.00
      H118          H  0.6166971  0.4611609  0.8923530    0.00000       Uiso       1.00
      C244          C  0.5000005  0.5000002  0.9400554    0.00000       Uiso       1.00
      H119          H  0.5459121  0.4325574  0.1910112    0.00000       Uiso       1.00
      H120          H  0.5459120  0.3624020  0.1910112    0.00000       Uiso       1.00
       N37          N  0.3008947  0.4596687  0.9024451    0.00000       Uiso       1.00
       O73          O  0.3241308  0.4699481  0.9059833    0.00000       Uiso       1.00
       O74          O  0.2889045  0.4709077  0.9009997    0.00000       Uiso       1.00
       N38          N  0.5376081  0.3788352  0.1391549    0.00000       Uiso       1.00
       O75          O  0.5340716  0.3882551  0.1159195    0.00000       Uiso       1.00
       O76          O  0.5390536  0.3570513  0.1511443    0.00000       Uiso       1.00
       N39          N  0.5403255  0.4623932  0.8188905    0.00000       Uiso       1.00
       O77          O  0.5300466  0.4659297  0.8283103    0.00000       Uiso       1.00
       O78          O  0.5290855  0.4609483  0.7971060    0.00000       Uiso       1.00
       N40          N  0.6211705  0.6991034  0.8997328    0.00000       Uiso       1.00
       O79          O  0.6117509  0.6758678  0.9100114    0.00000       Uiso       1.00
       O80          O  0.6429557  0.7110934  0.9109722    0.00000       Uiso       1.00
      C245          C  0.3298587  0.4313687  0.9069862    0.00000       Uiso       1.00
      C246          C  0.3413662  0.4581840  0.8946725    0.00000       Uiso       1.00
      C247          C  0.3684813  0.4693798  0.8993055    0.00000       Uiso       1.00
      C248          C  0.3463587  0.4161159  0.9240742    0.00000       Uiso       1.00
      C249          C  0.3734680  0.4273061  0.9287288    0.00000       Uiso       1.00
      C250          C  0.3850057  0.4541345  0.9164215    0.00000       Uiso       1.00
      H121          H  0.5319131  0.6144855  0.8550682    0.00000       Uiso       1.00
      H122          H  0.3383553  0.3955449  0.9343066    0.00000       Uiso       1.00
      H123          H  0.3292976  0.4704734  0.8810471    0.00000       Uiso       1.00
      C251          C  0.5684457  0.6701391  0.8714309    0.00000       Uiso       1.00
      C252          C  0.5537828  0.6536385  0.8561782    0.00000       Uiso       1.00
      C253          C  0.5425181  0.6265296  0.8673673    0.00000       Uiso       1.00
      C254          C  0.5714379  0.6586329  0.8982455    0.00000       Uiso       1.00
      C255          C  0.5601508  0.6315179  0.9094400    0.00000       Uiso       1.00
      C256          C  0.5454993  0.6149933  0.8941948    0.00000       Uiso       1.00
      H124          H  0.4975835  0.4680886  0.0545359    0.00000       Uiso       1.00
      H125          H  0.5821698  0.6707020  0.9105346    0.00000       Uiso       1.00
      H126          H  0.5514506  0.6616415  0.8356080    0.00000       Uiso       1.00
      C257          C  0.5686285  0.4669366  0.8716134    0.00000       Uiso       1.00
      C258          C  0.5838798  0.4840339  0.8862687    0.00000       Uiso       1.00
      C259          C  0.5726891  0.4886864  0.8975338    0.00000       Uiso       1.00
      C260          C  0.5418154  0.4546112  0.8686299    0.00000       Uiso       1.00
      C261          C  0.5306200  0.4592409  0.8799186    0.00000       Uiso       1.00
      C262          C  0.5458639  0.4763663  0.8945627    0.00000       Uiso       1.00
      H127          H  0.3855120  0.4150068  0.9424626    0.00000       Uiso       1.00
      H128          H  0.5295284  0.4409786  0.8579049    0.00000       Uiso       1.00
      H129          H  0.6044489  0.4942740  0.8885961    0.00000       Uiso       1.00
      C263          C  0.5330662  0.4315581  0.1101923    0.00000       Uiso       1.00
      C264          C  0.5453889  0.4285738  0.0986869    0.00000       Uiso       1.00
      C265          C  0.5407598  0.4398634  0.0715729    0.00000       Uiso       1.00
      C266          C  0.5159719  0.4462160  0.0936915    0.00000       Uiso       1.00
      C267          C  0.5113201  0.4574825  0.0665830    0.00000       Uiso       1.00
      C268          C  0.5236373  0.4545102  0.0550476    0.00000       Uiso       1.00
      H130          H  0.5849843  0.5024269  0.9081363    0.00000       Uiso       1.00
      H131          H  0.5057340  0.4485450  0.1016935    0.00000       Uiso       1.00
      H132          H  0.5590197  0.4178471  0.1107567    0.00000       Uiso       1.00
       N41          N  0.3796326  0.4981115  0.8851067    0.00000       Uiso       1.00
       O81          O  0.4028904  0.5082185  0.8887443    0.00000       Uiso       1.00
       O82          O  0.3653131  0.5110285  0.8700915    0.00000       Uiso       1.00
       N42          N  0.5549718  0.4364933  0.0604270    0.00000       Uiso       1.00
       O83          O  0.5513387  0.4460090  0.0371705    0.00000       Uiso       1.00
       O84          O  0.5699928  0.4242788  0.0747495    0.00000       Uiso       1.00
       N43          N  0.5018919  0.4450264  0.8765517    0.00000       Uiso       1.00
       O85          O  0.4917852  0.4486608  0.8860673    0.00000       Uiso       1.00
       O86          O  0.4889773  0.4300030  0.8643391    0.00000       Uiso       1.00
       N44          N  0.5635294  0.6203647  0.9381710    0.00000       Uiso       1.00
       O87          O  0.5540149  0.5971068  0.9482752    0.00000       Uiso       1.00
       O88          O  0.5757506  0.6346824  0.9510904    0.00000       Uiso       1.00
      C269          C  0.4140686  0.4661437  0.9215385    0.00000       Uiso       1.00
      C270          C  0.4279509  0.4914214  0.9233907    0.00000       Uiso       1.00
      C271          C  0.4551584  0.5024402  0.9286922    0.00000       Uiso       1.00
      C272          C  0.4283701  0.4522199  0.9253101    0.00000       Uiso       1.00
      C273          C  0.4555698  0.4632353  0.9306278    0.00000       Uiso       1.00
      C274          C  0.4695258  0.4889759  0.9315403    0.00000       Uiso       1.00
      H133          H  0.4798597  0.5341755  0.8914441    0.00000       Uiso       1.00
      H134          H  0.4185096  0.4326771  0.9241753    0.00000       Uiso       1.00
      H135          H  0.4178652  0.5024198  0.9215862    0.00000       Uiso       1.00
      C275          C  0.5335619  0.5859311  0.9062038    0.00000       Uiso       1.00
      C276          C  0.5091078  0.5716298  0.8922784    0.00000       Uiso       1.00
      C277          C  0.4982400  0.5444295  0.9032916    0.00000       Uiso       1.00
      C278          C  0.5468092  0.5720496  0.9314816    0.00000       Uiso       1.00
      C279          C  0.5359207  0.5448420  0.9424977    0.00000       Uiso       1.00
      C280          C  0.5109369  0.5304741  0.9290317    0.00000       Uiso       1.00
      H136          H  0.5056959  0.5201405  0.9742297    0.00000       Uiso       1.00
      H137          H  0.5660908  0.5821348  0.9424803    0.00000       Uiso       1.00
      H138          H  0.4982948  0.5814933  0.8727350    0.00000       Uiso       1.00
      C281          C  0.5338565  0.4814822  0.9065005    0.00000       Uiso       1.00
      C282          C  0.5477821  0.4852561  0.9309538    0.00000       Uiso       1.00
      C283          C  0.5367673  0.4905747  0.9418193    0.00000       Uiso       1.00
      C284          C  0.5085791  0.4833333  0.8932525    0.00000       Uiso       1.00
      C285          C  0.4975602  0.4886343  0.9041389    0.00000       Uiso       1.00
      C286          C  0.5110255  0.4914843  0.9291220    0.00000       Uiso       1.00
      H139          H  0.4658212  0.4513893  0.9343421    0.00000       Uiso       1.00
      H140          H  0.4975813  0.4815254  0.8739739    0.00000       Uiso       1.00
      H141          H  0.5673249  0.4841218  0.9417712    0.00000       Uiso       1.00
      C287          C  0.5185200  0.4664483  0.0259853    0.00000       Uiso       1.00
      C288          C  0.5166718  0.4532017  0.0121051    0.00000       Uiso       1.00
      C289          C  0.5113689  0.4640868  0.9848986    0.00000       Uiso       1.00
      C290          C  0.5147402  0.4908989  0.0116818    0.00000       Uiso       1.00
      C291          C  0.5094200  0.5017625  0.9844828    0.00000       Uiso       1.00
      C292          C  0.5085135  0.4890669  0.9705291    0.00000       Uiso       1.00
      H142          H  0.5486162  0.4942918  0.9602013    0.00000       Uiso       1.00
      H143          H  0.5158703  0.5017163  0.0215390    0.00000       Uiso       1.00
      H144          H  0.5184852  0.4339254  0.0221950    0.00000       Uiso       1.00
       N45          N  0.4689864  0.5289420  0.9320780    0.00000       Uiso       1.00
       O89          O  0.4923908  0.5390241  0.9366585    0.00000       Uiso       1.00
       O90          O  0.4566652  0.5400974  0.9302106    0.00000       Uiso       1.00
       N46          N  0.5079888  0.4480316  0.9710695    0.00000       Uiso       1.00
       O91          O  0.5034066  0.4567747  0.9476653    0.00000       Uiso       1.00
       O92          O  0.5098626  0.4264248  0.9833899    0.00000       Uiso       1.00
       N47          N  0.4710555  0.4920134  0.8880808    0.00000       Uiso       1.00
       O93          O  0.4609737  0.4965932  0.8968226    0.00000       Uiso       1.00
       O94          O  0.4598982  0.4901425  0.8664725    0.00000       Uiso       1.00
       N48          N  0.5519788  0.5310103  0.9689977    0.00000       Uiso       1.00
       O95          O  0.5432337  0.5076060  0.9790753    0.00000       Uiso       1.00
       O96          O  0.5735902  0.5433284  0.9801556    0.00000       Uiso       1.00
      C293          C  0.0438220  0.3962599  0.1938230    0.00000       Uiso       1.00
      C294          C  0.0572307  0.4213293  0.1802417    0.00000       Uiso       1.00
      C295          C  0.0458026  0.4328363  0.1531997    0.00000       Uiso       1.00
      C296          C  0.0187523  0.3828509  0.1802407    0.00000       Uiso       1.00
      C297          C  0.0072697  0.3941888  0.1531999    0.00000       Uiso       1.00
      C298          C  0.0206425  0.4193792  0.1391920    0.00000       Uiso       1.00
      H145          H  0.9789115  0.7032571  0.8923633    0.00000       Uiso       1.00
      H146          H  0.0075102  0.3624143  0.1910236    0.00000       Uiso       1.00
      H147          H  0.0776676  0.4325716  0.1910255    0.00000       Uiso       1.00
      C299          C  0.9863118  0.7537674  0.8363138    0.00000       Uiso       1.00
      C300          C  0.9843908  0.7401857  0.8613828    0.00000       Uiso       1.00
      C301          C  0.9801709  0.7131451  0.8728651    0.00000       Uiso       1.00
      C302          C  0.9843907  0.7401857  0.8229054    0.00000       Uiso       1.00
      C303          C  0.9802845  0.7131439  0.8343333    0.00000       Uiso       1.00
      C304          C  0.9779807  0.6991371  0.8594927    0.00000       Uiso       1.00
      H148          H  0.0567628  0.4523101  0.9012266    0.00000       Uiso       1.00
      H149          H  0.9859794  0.7509690  0.8024691    0.00000       Uiso       1.00
      H150          H  0.9859794  0.7509690  0.8726245    0.00000       Uiso       1.00
      C305          C  0.6863054  0.4537608  0.8363060    0.00000       Uiso       1.00
      C306          C  0.6998873  0.4556821  0.8228980    0.00000       Uiso       1.00
      C307          C  0.7269287  0.4599035  0.8342366    0.00000       Uiso       1.00
      C308          C  0.6998873  0.4556822  0.8613753    0.00000       Uiso       1.00
      C309          C  0.7269297  0.4597885  0.8728837    0.00000       Uiso       1.00
      C310          C  0.7409369  0.4620935  0.8594273    0.00000       Uiso       1.00
      H151          H  0.9877713  0.3833189  0.1433113    0.00000       Uiso       1.00
      H152          H  0.6891039  0.4540932  0.8726168    0.00000       Uiso       1.00
      H153          H  0.6891038  0.4540932  0.8024613    0.00000       Uiso       1.00
      C311          C  0.0438227  0.3962602  0.8938255    0.00000       Uiso       1.00
      C312          C  0.0187531  0.3828512  0.8957458    0.00000       Uiso       1.00
      C313          C  0.0072450  0.3942795  0.8998509    0.00000       Uiso       1.00
      C314          C  0.0572314  0.4213296  0.8957469    0.00000       Uiso       1.00
      C315          C  0.0458931  0.4328117  0.8999665    0.00000       Uiso       1.00
      C316          C  0.0207021  0.4194391  0.9021555    0.00000       Uiso       1.00
      H154          H  0.7368177  0.4611640  0.8233674    0.00000       Uiso       1.00
      C317          C  0.9400647  0.5000119  0.9400664    0.00000       Uiso       1.00
      H155          H  0.0776683  0.4325719  0.8941588    0.00000       Uiso       1.00
      H156          H  0.0075110  0.3624146  0.8941569    0.00000       Uiso       1.00
       N49          N  0.0612358  0.4596887  0.1391692    0.00000       Uiso       1.00
       O97          O  0.0518165  0.4699672  0.1159334    0.00000       Uiso       1.00
       O98          O  0.0830204  0.4709286  0.1511596    0.00000       Uiso       1.00
       N50          N  0.9803917  0.3788474  0.9024598    0.00000       Uiso       1.00
       O99          O  0.9701127  0.3882671  0.9059960    0.00000       Uiso       1.00
      O100          O  0.9691514  0.3570631  0.9010141    0.00000       Uiso       1.00
       N51          N  0.7409614  0.4623986  0.8997371    0.00000       Uiso       1.00
      O101          O  0.7641973  0.4659360  0.9100163    0.00000       Uiso       1.00
      O102          O  0.7289719  0.4609537  0.9109764    0.00000       Uiso       1.00
       N52          N  0.9776731  0.6991129  0.8189007    0.00000       Uiso       1.00
      O103          O  0.9741358  0.6758774  0.8283199    0.00000       Uiso       1.00
      O104          O  0.9791169  0.7111023  0.7971162    0.00000       Uiso       1.00
      C318          C  0.0085107  0.4313865  0.1102045    0.00000       Uiso       1.00
      C319          C  0.0115046  0.4582017  0.0986974    0.00000       Uiso       1.00
      C320          C  0.0002172  0.4693963  0.0715827    0.00000       Uiso       1.00
      C321          C  0.9938455  0.4161328  0.0937045    0.00000       Uiso       1.00
      C322          C  0.9825801  0.4273221  0.0665957    0.00000       Uiso       1.00
      C323          C  0.9855632  0.4541502  0.0550584    0.00000       Uiso       1.00
      H157          H  0.9376493  0.6144964  0.9081545    0.00000       Uiso       1.00
      H158          H  0.9915103  0.3955620  0.1017077    0.00000       Uiso       1.00
      H159          H  0.0222378  0.4704916  0.1107659    0.00000       Uiso       1.00
      C324          C  0.9731330  0.6701499  0.8716239    0.00000       Uiso       1.00
      C325          C  0.9560425  0.6536493  0.8862860    0.00000       Uiso       1.00
      C326          C  0.9513876  0.6265406  0.8975502    0.00000       Uiso       1.00
      C327          C  0.9854494  0.6586440  0.8686321    0.00000       Uiso       1.00
      C328          C  0.9808162  0.6315292  0.8799188    0.00000       Uiso       1.00
      C329          C  0.9636979  0.6150044  0.8945695    0.00000       Uiso       1.00
      H160          H  0.0250527  0.4681031  0.9424846    0.00000       Uiso       1.00
      H161          H  0.9990758  0.6707131  0.8579009    0.00000       Uiso       1.00
      H162          H  0.9458074  0.6616521  0.8886178    0.00000       Uiso       1.00
      C330          C  0.7699245  0.4669420  0.8714356    0.00000       Uiso       1.00
      C331          C  0.7864260  0.4840394  0.8561852    0.00000       Uiso       1.00
      C332          C  0.8135353  0.4886928  0.8673763    0.00000       Uiso       1.00
      C333          C  0.7814298  0.4546177  0.8982483    0.00000       Uiso       1.00
      C334          C  0.8085446  0.4592483  0.9094440    0.00000       Uiso       1.00
      C335          C  0.8250702  0.4763738  0.8942010    0.00000       Uiso       1.00
      H163          H  0.9719699  0.4150222  0.0545518    0.00000       Uiso       1.00
      H164          H  0.7693592  0.4409850  0.9105347    0.00000       Uiso       1.00
      H165          H  0.7784235  0.4942786  0.8356164    0.00000       Uiso       1.00
      C336          C  0.0086946  0.4315711  0.9070025    0.00000       Uiso       1.00
      C337          C  0.9818814  0.4285858  0.8946793    0.00000       Uiso       1.00
      C338          C  0.9706861  0.4398753  0.8993080    0.00000       Uiso       1.00
      C339          C  0.0239469  0.4462300  0.9240967    0.00000       Uiso       1.00
      C340          C  0.0127564  0.4574963  0.9287480    0.00000       Uiso       1.00
      C341          C  0.9859310  0.4545229  0.9164305    0.00000       Uiso       1.00
      H166          H  0.8255831  0.5024333  0.8550818    0.00000       Uiso       1.00
      H167          H  0.0445166  0.4485597  0.9343349    0.00000       Uiso       1.00
      H168          H  0.9695932  0.4178584  0.8810486    0.00000       Uiso       1.00
       N53          N  0.0035986  0.4981279  0.0604318    0.00000       Uiso       1.00
      O105          O  0.9940850  0.5082340  0.0371743    0.00000       Uiso       1.00
      O106          O  0.0158206  0.5110456  0.0747512    0.00000       Uiso       1.00
       N54          N  0.9419569  0.4365040  0.8850956    0.00000       Uiso       1.00
      O107          O  0.9318490  0.4460196  0.8887283    0.00000       Uiso       1.00
      O108          O  0.9290430  0.4242887  0.8700746    0.00000       Uiso       1.00
       N55          N  0.8196926  0.4450350  0.9381718    0.00000       Uiso       1.00
      O109          O  0.8429500  0.4486702  0.9482788    0.00000       Uiso       1.00
      O110          O  0.8053711  0.4300115  0.9510857    0.00000       Uiso       1.00
       N56          N  0.9950156  0.6203762  0.8765407    0.00000       Uiso       1.00
      O111          O  0.9913766  0.5971185  0.8860549    0.00000       Uiso       1.00
      O112          O  0.0100312  0.6346939  0.8643202    0.00000       Uiso       1.00
      C342          C  0.9736252  0.4661582  0.0259959    0.00000       Uiso       1.00
      C343          C  0.9868729  0.4914360  0.0121143    0.00000       Uiso       1.00
      C344          C  0.9759858  0.5024541  0.9849083    0.00000       Uiso       1.00
      C345          C  0.9491705  0.4522334  0.0116941    0.00000       Uiso       1.00
      C346          C  0.9383040  0.4632483  0.9844958    0.00000       Uiso       1.00
      C347          C  0.9510010  0.4889888  0.9705406    0.00000       Uiso       1.00
      H169          H  0.9457701  0.5341880  0.9602068    0.00000       Uiso       1.00
      H170          H  0.9383535  0.4326907  0.0215541    0.00000       Uiso       1.00
      H171          H  0.0061529  0.5024353  0.0222003    0.00000       Uiso       1.00
      C348          C  0.9585822  0.5859424  0.9065064    0.00000       Uiso       1.00
      C349          C  0.9548102  0.5716417  0.9309598    0.00000       Uiso       1.00
      C350          C  0.9494910  0.5444416  0.9418271    0.00000       Uiso       1.00
      C351          C  0.9567308  0.5720605  0.8932594    0.00000       Uiso       1.00
      C352          C  0.9514279  0.5448532  0.9041474    0.00000       Uiso       1.00
      C353          C  0.9485784  0.5304859  0.9291306    0.00000       Uiso       1.00
      H172          H  0.9886850  0.5201533  0.9343725    0.00000       Uiso       1.00
      H173          H  0.9585328  0.5821453  0.8739784    0.00000       Uiso       1.00
      H174          H  0.9559436  0.5815055  0.9417725    0.00000       Uiso       1.00
      C354          C  0.8541326  0.4814908  0.9062090    0.00000       Uiso       1.00
      C355          C  0.8684342  0.4852647  0.8922842    0.00000       Uiso       1.00
      C356          C  0.8956340  0.4905843  0.9032994    0.00000       Uiso       1.00
      C357          C  0.8680140  0.4833429  0.9314861    0.00000       Uiso       1.00
      C358          C  0.8952213  0.4886449  0.9425054    0.00000       Uiso       1.00
      C359          C  0.9095891  0.4914949  0.9290408    0.00000       Uiso       1.00
      H175          H  0.9199202  0.4514015  0.9742442    0.00000       Uiso       1.00
      H176          H  0.8579254  0.4815350  0.9424832    0.00000       Uiso       1.00
      H177          H  0.8585736  0.4841295  0.8727416    0.00000       Uiso       1.00
      C360          C  0.9739239  0.4664609  0.9215472    0.00000       Uiso       1.00
      C361          C  0.9486446  0.4532136  0.9233948    0.00000       Uiso       1.00
      C362          C  0.9376256  0.4640982  0.9286982    0.00000       Uiso       1.00
      C363          C  0.9878512  0.4909120  0.9253274    0.00000       Uiso       1.00
      C364          C  0.9768355  0.5017750  0.9306481    0.00000       Uiso       1.00
      C365          C  0.9510922  0.4890788  0.9315540    0.00000       Uiso       1.00
      H178          H  0.9058841  0.4943013  0.8914511    0.00000       Uiso       1.00
      H179          H  0.0073957  0.5017297  0.9241978    0.00000       Uiso       1.00
      H180          H  0.9376445  0.4339370  0.9215810    0.00000       Uiso       1.00
       N57          N  0.9920455  0.5289560  0.9710811    0.00000       Uiso       1.00
      O113          O  0.9833028  0.5390372  0.9476771    0.00000       Uiso       1.00
      O114          O  0.0136551  0.5401123  0.9834026    0.00000       Uiso       1.00
       N58          N  0.9111209  0.4480424  0.9320775    0.00000       Uiso       1.00
      O115          O  0.9010417  0.4567853  0.9366593    0.00000       Uiso       1.00
      O116          O  0.8999602  0.4264352  0.9302035    0.00000       Uiso       1.00
       N59          N  0.9090482  0.4920251  0.9690098    0.00000       Uiso       1.00
      O117          O  0.9324526  0.4966058  0.9790919    0.00000       Uiso       1.00
      O118          O  0.8967263  0.4901543  0.9801664    0.00000       Uiso       1.00
       N60          N  0.9480377  0.5310209  0.8880898    0.00000       Uiso       1.00
      O119          O  0.9434561  0.5076167  0.8968344    0.00000       Uiso       1.00
      O120          O  0.9499016  0.5433384  0.8664790    0.00000       Uiso       1.00
      C366          C  0.0438222  0.8938247  0.1938230    0.00000       Uiso       1.00
      C367          C  0.0187525  0.8957450  0.1802407    0.00000       Uiso       1.00
      C368          C  0.0072450  0.8998514  0.1531987    0.00000       Uiso       1.00
      C369          C  0.0572309  0.8957460  0.1802418    0.00000       Uiso       1.00
      C370          C  0.0458924  0.8999656  0.1532010    0.00000       Uiso       1.00
      C371          C  0.0207016  0.9021556  0.1391921    0.00000       Uiso       1.00
      H181          H  0.7368167  0.8233669  0.8923568    0.00000       Uiso       1.00
      H182          H  0.0776678  0.8941579  0.1910255    0.00000       Uiso       1.00
      H183          H  0.0075105  0.8941560  0.1910236    0.00000       Uiso       1.00
      C372          C  0.6863052  0.8363051  0.8363059    0.00000       Uiso       1.00
      C373          C  0.6998872  0.8228971  0.8613752    0.00000       Uiso       1.00
      C374          C  0.7269284  0.8342362  0.8728583    0.00000       Uiso       1.00
      C375          C  0.6998872  0.8613745  0.8228979    0.00000       Uiso       1.00
      C376          C  0.7269295  0.8728828  0.8343265    0.00000       Uiso       1.00
      C377          C  0.7409368  0.8594269  0.8594863    0.00000       Uiso       1.00
      H184          H  0.9877719  0.1433106  0.9012247    0.00000       Uiso       1.00
      H185          H  0.6891037  0.8726160  0.8024613    0.00000       Uiso       1.00
      H186          H  0.6891037  0.8024606  0.8726166    0.00000       Uiso       1.00
      C378          C  0.9863117  0.8363134  0.8363140    0.00000       Uiso       1.00
      C379          C  0.9843907  0.8613822  0.8229055    0.00000       Uiso       1.00
      C380          C  0.9801699  0.8728642  0.8342433    0.00000       Uiso       1.00
      C381          C  0.9843907  0.8229049  0.8613829    0.00000       Uiso       1.00
      C382          C  0.9802849  0.8343331  0.8728905    0.00000       Uiso       1.00
      C383          C  0.9779803  0.8594921  0.8594337    0.00000       Uiso       1.00
      H187          H  0.0567620  0.9012250  0.1433132    0.00000       Uiso       1.00
      H188          H  0.9859793  0.8024687  0.8726247    0.00000       Uiso       1.00
      H189          H  0.9859793  0.8726241  0.8024693    0.00000       Uiso       1.00
      C384          C  0.0438225  0.1938225  0.8938255    0.00000       Uiso       1.00
      C385          C  0.0572312  0.1802412  0.8957469    0.00000       Uiso       1.00
      C386          C  0.0458023  0.1531992  0.8998520    0.00000       Uiso       1.00
      C387          C  0.0187528  0.1802402  0.8957459    0.00000       Uiso       1.00
      C388          C  0.0072701  0.1531995  0.8999656    0.00000       Uiso       1.00
      C389          C  0.0206424  0.1391918  0.9021555    0.00000       Uiso       1.00
      H190          H  0.9789096  0.8923621  0.8233739    0.00000       Uiso       1.00
      C390          C  0.9400663  0.9400666  0.9400664    0.00000       Uiso       1.00
      H191          H  0.0075108  0.1910231  0.8941569    0.00000       Uiso       1.00
      H192          H  0.0776680  0.1910250  0.8941588    0.00000       Uiso       1.00
       N61          N  0.9803926  0.9024623  0.1391670    0.00000       Uiso       1.00
      O121          O  0.9701135  0.9059996  0.1159313    0.00000       Uiso       1.00
      O122          O  0.9691530  0.9010169  0.1511565    0.00000       Uiso       1.00
       N62          N  0.0612342  0.1391685  0.9024621    0.00000       Uiso       1.00
      O123          O  0.0518138  0.1159329  0.9059983    0.00000       Uiso       1.00
      O124          O  0.0830186  0.1511584  0.9010172    0.00000       Uiso       1.00
       N63          N  0.9776752  0.8189017  0.8997434    0.00000       Uiso       1.00
      O125          O  0.9741384  0.8283215  0.9100219    0.00000       Uiso       1.00
      O126          O  0.9791198  0.7971175  0.9109831    0.00000       Uiso       1.00
       N64          N  0.7409609  0.8997353  0.8188943    0.00000       Uiso       1.00
      O127          O  0.7641969  0.9100148  0.8283144    0.00000       Uiso       1.00
      O128          O  0.7289711  0.9109738  0.7971095    0.00000       Uiso       1.00
      C391          C  0.0086937  0.9070035  0.1102045    0.00000       Uiso       1.00
      C392          C  0.9818783  0.8946887  0.0986966    0.00000       Uiso       1.00
      C393          C  0.9706830  0.8993207  0.0715819    0.00000       Uiso       1.00
      C394          C  0.0239473  0.9240914  0.0937053    0.00000       Uiso       1.00
      C395          C  0.0127575  0.9287450  0.0665965    0.00000       Uiso       1.00
      C396          C  0.9859291  0.9164366  0.0550584    0.00000       Uiso       1.00
      H193          H  0.8255787  0.8550755  0.9081516    0.00000       Uiso       1.00
      H194          H  0.0445187  0.9343245  0.1017091    0.00000       Uiso       1.00
      H195          H  0.9695883  0.8810633  0.1107646    0.00000       Uiso       1.00
      C397          C  0.7699245  0.8714356  0.8716185    0.00000       Uiso       1.00
      C398          C  0.7864252  0.8561837  0.8862815    0.00000       Uiso       1.00
      C399          C  0.8135345  0.8673739  0.8975466    0.00000       Uiso       1.00
      C400          C  0.7814313  0.8982505  0.8686268    0.00000       Uiso       1.00
      C401          C  0.8085466  0.9094459  0.8799143    0.00000       Uiso       1.00
      C402          C  0.8250713  0.8942018  0.8945658    0.00000       Uiso       1.00
      H196          H  0.9719777  0.0545482  0.9424832    0.00000       Uiso       1.00
      H197          H  0.7693621  0.9105390  0.8578948    0.00000       Uiso       1.00
      H198          H  0.7784219  0.8356135  0.8886134    0.00000       Uiso       1.00
      C403          C  0.9731324  0.8716235  0.8714410    0.00000       Uiso       1.00
      C404          C  0.9560351  0.8862781  0.8561897    0.00000       Uiso       1.00
      C405          C  0.9513822  0.8975433  0.8673800    0.00000       Uiso       1.00
      C406          C  0.9854574  0.8686411  0.8982537    0.00000       Uiso       1.00
      C407          C  0.9808275  0.8799301  0.9094487    0.00000       Uiso       1.00
      C408          C  0.9637020  0.8945732  0.8942048    0.00000       Uiso       1.00
      H199          H  0.0250574  0.9424787  0.0545532    0.00000       Uiso       1.00
      H200          H  0.9990901  0.8579168  0.9105408    0.00000       Uiso       1.00
      H201          H  0.9457952  0.8886046  0.8356209    0.00000       Uiso       1.00
      C409          C  0.0085097  0.1102046  0.9070025    0.00000       Uiso       1.00
      C410          C  0.0114944  0.0986989  0.8946801    0.00000       Uiso       1.00
      C411          C  0.0002043  0.0715848  0.8993088    0.00000       Uiso       1.00
      C412          C  0.9938513  0.0937038  0.9240959    0.00000       Uiso       1.00
      C413          C  0.9825844  0.0665952  0.9287472    0.00000       Uiso       1.00
      C414          C  0.9855571  0.0550595  0.9164305    0.00000       Uiso       1.00
      H202          H  0.9376417  0.9081452  0.8550848    0.00000       Uiso       1.00
      H203          H  0.9915221  0.1017061  0.9343336    0.00000       Uiso       1.00
      H204          H  0.0222217  0.1107686  0.8810501    0.00000       Uiso       1.00
       N65          N  0.9419507  0.8851207  0.0604302    0.00000       Uiso       1.00
      O129          O  0.9318441  0.8887574  0.0371727    0.00000       Uiso       1.00
      O130          O  0.9290330  0.8701056  0.0747489    0.00000       Uiso       1.00
       N66          N  0.0035748  0.0604386  0.8850973    0.00000       Uiso       1.00
      O131          O  0.9940591  0.0371818  0.8887299    0.00000       Uiso       1.00
      O132          O  0.0157901  0.0747610  0.8700770    0.00000       Uiso       1.00
       N67          N  0.9950415  0.8765644  0.9381765    0.00000       Uiso       1.00
      O133          O  0.9914068  0.8860800  0.9482828    0.00000       Uiso       1.00
      O134          O  0.0100645  0.8643524  0.9510911    0.00000       Uiso       1.00
       N68          N  0.8197003  0.9381773  0.8765360    0.00000       Uiso       1.00
      O135          O  0.8429585  0.9482822  0.8860509    0.00000       Uiso       1.00
      O136          O  0.8053825  0.9510959  0.8643148    0.00000       Uiso       1.00
      C415          C  0.9739204  0.9215525  0.0259959    0.00000       Uiso       1.00
      C416          C  0.9486423  0.9234036  0.0121133    0.00000       Uiso       1.00
      C417          C  0.9376251  0.9287045  0.9849073    0.00000       Uiso       1.00
      C418          C  0.9878450  0.9253240  0.0116952    0.00000       Uiso       1.00
      C419          C  0.9768309  0.9306411  0.9844968    0.00000       Uiso       1.00
      C420          C  0.9510900  0.9315525  0.9705406    0.00000       Uiso       1.00
      H205          H  0.9058895  0.8914549  0.9602057    0.00000       Uiso       1.00
      H206          H  0.0073874  0.9241901  0.0215559    0.00000       Uiso       1.00
      H207          H  0.9376433  0.9215990  0.0221985    0.00000       Uiso       1.00
      C421          C  0.8541340  0.9062118  0.9065037    0.00000       Uiso       1.00
      C422          C  0.8684350  0.8922874  0.9309574    0.00000       Uiso       1.00
      C423          C  0.8956356  0.9033015  0.9418257    0.00000       Uiso       1.00
      C424          C  0.8680162  0.9314896  0.8932571    0.00000       Uiso       1.00
      C425          C  0.8952242  0.9425067  0.9041460    0.00000       Uiso       1.00
      C426          C  0.9095918  0.9290417  0.9291295    0.00000       Uiso       1.00
      H208          H  0.9199257  0.9742402  0.9343706    0.00000       Uiso       1.00
      H209          H  0.8579312  0.9424875  0.8739758    0.00000       Uiso       1.00
      H210          H  0.8585710  0.8727440  0.9417700    0.00000       Uiso       1.00
      C427          C  0.9585855  0.9065112  0.9062117    0.00000       Uiso       1.00
      C428          C  0.9548120  0.9309641  0.8922865    0.00000       Uiso       1.00
      C429          C  0.9494929  0.9418297  0.9033008    0.00000       Uiso       1.00
      C430          C  0.9567338  0.8932638  0.9314884    0.00000       Uiso       1.00
      C431          C  0.9514324  0.9041504  0.9425069    0.00000       Uiso       1.00
      C432          C  0.9485828  0.9291329  0.9290419    0.00000       Uiso       1.00
      H211          H  0.9886776  0.9343556  0.9742461    0.00000       Uiso       1.00
      H212          H  0.9585415  0.8739856  0.9424859    0.00000       Uiso       1.00
      H213          H  0.9559469  0.9417809  0.8727443    0.00000       Uiso       1.00
      C433          C  0.9736185  0.0259970  0.9215474    0.00000       Uiso       1.00
      C434          C  0.9868654  0.0121172  0.9233958    0.00000       Uiso       1.00
      C435          C  0.9759809  0.9849104  0.9286993    0.00000       Uiso       1.00
      C436          C  0.9491672  0.0116929  0.9253264    0.00000       Uiso       1.00
      C437          C  0.9383043  0.9844937  0.9306471    0.00000       Uiso       1.00
      C438          C  0.9510001  0.9705403  0.9315540    0.00000       Uiso       1.00
      H214          H  0.9457762  0.9602113  0.8914521    0.00000       Uiso       1.00
      H215          H  0.9383496  0.0215499  0.9241959    0.00000       Uiso       1.00
      H216          H  0.0061418  0.0222076  0.9215829    0.00000       Uiso       1.00
       N69          N  0.9111229  0.9320893  0.9710789    0.00000       Uiso       1.00
      O137          O  0.9010412  0.9366688  0.9476749    0.00000       Uiso       1.00
      O138          O  0.8999669  0.9302219  0.9833995    0.00000       Uiso       1.00
       N70          N  0.9920365  0.9710819  0.9320797    0.00000       Uiso       1.00
      O139          O  0.9832930  0.9476775  0.9366615    0.00000       Uiso       1.00
      O140          O  0.0136434  0.9834027  0.9302065    0.00000       Uiso       1.00
       N71          N  0.9480525  0.8880929  0.9690108    0.00000       Uiso       1.00
      O141          O  0.9434723  0.8968349  0.9790922    0.00000       Uiso       1.00
      O142          O  0.9499231  0.8664849  0.9801679    0.00000       Uiso       1.00
       N72          N  0.9090567  0.9690067  0.8880888    0.00000       Uiso       1.00
      O143          O  0.9324614  0.9790851  0.8968341    0.00000       Uiso       1.00
      O144          O  0.8967388  0.9801636  0.8664775    0.00000       Uiso       1.00
      O145          O  0.6442347  0.8363050  0.4521677    0.00000       Uiso       1.00
        B1          B  0.6570036  0.8222824  0.4525045    0.00000       Uiso       1.00
        B2          B  0.6177788  0.7830576  0.4525034    0.00000       Uiso       1.00
      O146          O  0.6442347  0.7958268  0.4521678    0.00000       Uiso       1.00
      O147          O  0.6037551  0.7958254  0.4521666    0.00000       Uiso       1.00
        B3          B  0.6177788  0.8222808  0.4525034    0.00000       Uiso       1.00
      O148          O  0.6442358  0.4521674  0.8363057    0.00000       Uiso       1.00
        B4          B  0.6177800  0.4525032  0.8222820    0.00000       Uiso       1.00
        B5          B  0.6177800  0.4525031  0.7830583    0.00000       Uiso       1.00
      O149          O  0.6037566  0.4521664  0.7958265    0.00000       Uiso       1.00
      O150          O  0.6442357  0.4521674  0.7958272    0.00000       Uiso       1.00
        B6          B  0.6570043  0.4525042  0.8222826    0.00000       Uiso       1.00
        B7          B  0.5492079  0.2236086  0.3828292    0.00000       Uiso       1.00
        B8          B  0.5492080  0.3828288  0.3828292    0.00000       Uiso       1.00
        B9          B  0.5492078  0.3828288  0.2236090    0.00000       Uiso       1.00
      C439          C  0.5509782  0.3075097  0.3532352    0.00000       Uiso       1.00
      C440          C  0.5505195  0.2623778  0.3749561    0.00000       Uiso       1.00
      H217          H  0.5508916  0.2824663  0.3938196    0.00000       Uiso       1.00
      O151          O  0.5497338  0.2386108  0.3951120    0.00000       Uiso       1.00
      C441          C  0.5507954  0.2843007  0.3756104    0.00000       Uiso       1.00
      C442          C  0.5509782  0.3532348  0.3302925    0.00000       Uiso       1.00
      C443          C  0.5505196  0.3749557  0.3532449    0.00000       Uiso       1.00
      H218          H  0.5508916  0.3938192  0.3146649    0.00000       Uiso       1.00
      O152          O  0.5497339  0.3951116  0.3560702    0.00000       Uiso       1.00
      C444          C  0.5507954  0.3756099  0.3309435    0.00000       Uiso       1.00
      C445          C  0.5509781  0.3302921  0.3075101    0.00000       Uiso       1.00
      C446          C  0.5505195  0.3532444  0.2623782    0.00000       Uiso       1.00
      H219          H  0.5508915  0.3146644  0.2824668    0.00000       Uiso       1.00
      O153          O  0.5497338  0.3560697  0.2386113    0.00000       Uiso       1.00
      C447          C  0.5507953  0.3309430  0.2843012    0.00000       Uiso       1.00
      C448          C  0.5509782  0.3302921  0.3532352    0.00000       Uiso       1.00
      C449          C  0.5505196  0.3532444  0.3749562    0.00000       Uiso       1.00
      O154          O  0.5497339  0.3560698  0.3951120    0.00000       Uiso       1.00
      H220          H  0.5508916  0.3146645  0.3938196    0.00000       Uiso       1.00
      C450          C  0.5507954  0.3309431  0.3756104    0.00000       Uiso       1.00
      C451          C  0.5509781  0.3075096  0.3302925    0.00000       Uiso       1.00
      C452          C  0.5505195  0.2623778  0.3532449    0.00000       Uiso       1.00
      H221          H  0.5508915  0.2824663  0.3146649    0.00000       Uiso       1.00
      O155          O  0.5497338  0.2386108  0.3560702    0.00000       Uiso       1.00
      C453          C  0.5507953  0.2843007  0.3309435    0.00000       Uiso       1.00
      C454          C  0.5509782  0.3532348  0.3075101    0.00000       Uiso       1.00
      C455          C  0.5505195  0.3749557  0.2623782    0.00000       Uiso       1.00
      H222          H  0.5508916  0.3938192  0.2824668    0.00000       Uiso       1.00
      O156          O  0.5497338  0.3951115  0.2386113    0.00000       Uiso       1.00
      C456          C  0.5507954  0.3756099  0.2843012    0.00000       Uiso       1.00
       B10          B  0.0572136  0.3828155  0.2235958    0.00000       Uiso       1.00
       B11          B  0.2164382  0.3828199  0.3828204    0.00000       Uiso       1.00
       B12          B  0.0572136  0.2235953  0.3828161    0.00000       Uiso       1.00
      C457          C  0.1097518  0.3532229  0.3074983    0.00000       Uiso       1.00
      C458          C  0.0867988  0.3749432  0.2623658    0.00000       Uiso       1.00
      H223          H  0.1253798  0.3938077  0.2824554    0.00000       Uiso       1.00
      O157          O  0.0839734  0.3950990  0.2385988    0.00000       Uiso       1.00
      C459          C  0.1091008  0.3755980  0.2842894    0.00000       Uiso       1.00
      C460          C  0.1325349  0.3302808  0.3532241    0.00000       Uiso       1.00
      C461          C  0.1776679  0.3532344  0.3749462    0.00000       Uiso       1.00
      H224          H  0.1575789  0.3146539  0.3938091    0.00000       Uiso       1.00
      O158          O  0.2014356  0.3560604  0.3951027    0.00000       Uiso       1.00
      C462          C  0.1557444  0.3309325  0.3755998    0.00000       Uiso       1.00
      C463          C  0.0868085  0.3074972  0.3302801    0.00000       Uiso       1.00
      C464          C  0.0650870  0.2623647  0.3532319    0.00000       Uiso       1.00
      H225          H  0.0462230  0.2824527  0.3146514    0.00000       Uiso       1.00
      O159          O  0.0449305  0.2385972  0.3560567    0.00000       Uiso       1.00
      C465          C  0.0644327  0.2842876  0.3309306    0.00000       Uiso       1.00
      C466          C  0.1325348  0.3532236  0.3302813    0.00000       Uiso       1.00
      C467          C  0.1776679  0.3749457  0.3532349    0.00000       Uiso       1.00
      O160          O  0.2014356  0.3951022  0.3560609    0.00000       Uiso       1.00
      H226          H  0.1575789  0.3938086  0.3146544    0.00000       Uiso       1.00
      C468          C  0.1557444  0.3755993  0.3309330    0.00000       Uiso       1.00
      C469          C  0.0868085  0.3302796  0.3074977    0.00000       Uiso       1.00
      C470          C  0.0650869  0.3532313  0.2623653    0.00000       Uiso       1.00
      H227          H  0.0462230  0.3146509  0.2824533    0.00000       Uiso       1.00
      O161          O  0.0449305  0.3560562  0.2385978    0.00000       Uiso       1.00
      C471          C  0.0644327  0.3309300  0.2842882    0.00000       Uiso       1.00
      C472          C  0.1097518  0.3074978  0.3532234    0.00000       Uiso       1.00
      C473          C  0.0867988  0.2623653  0.3749438    0.00000       Uiso       1.00
      H228          H  0.1253799  0.2824549  0.3938083    0.00000       Uiso       1.00
      O162          O  0.0839734  0.2385983  0.3950996    0.00000       Uiso       1.00
      C474          C  0.1091008  0.2842889  0.3755986    0.00000       Uiso       1.00
      O163          O  0.9879039  0.7958363  0.8363148    0.00000       Uiso       1.00
       B13          B  0.9875675  0.7830677  0.8222919    0.00000       Uiso       1.00
       B14          B  0.9875675  0.8222914  0.7830681    0.00000       Uiso       1.00
      O164          O  0.9879038  0.7958362  0.7958367    0.00000       Uiso       1.00
      O165          O  0.9879040  0.8363148  0.7958363    0.00000       Uiso       1.00
       B15          B  0.9875675  0.8222915  0.8222914    0.00000       Uiso       1.00
       B16          B  0.0572407  0.8908618  0.2236225    0.00000       Uiso       1.00
       B17          B  0.0572408  0.8908619  0.3828427    0.00000       Uiso       1.00
       B18          B  0.2164653  0.8908662  0.3828470    0.00000       Uiso       1.00
      C475          C  0.0868356  0.8890924  0.3075244    0.00000       Uiso       1.00
      C476          C  0.0651141  0.8895504  0.2623919    0.00000       Uiso       1.00
      H229          H  0.0462501  0.8891780  0.2824799    0.00000       Uiso       1.00
      O166          O  0.0449576  0.8903356  0.2386244    0.00000       Uiso       1.00
      C477          C  0.0644599  0.8892747  0.2843148    0.00000       Uiso       1.00
      C478          C  0.1097790  0.8890931  0.3532501    0.00000       Uiso       1.00
      C479          C  0.0868260  0.8895511  0.3749704    0.00000       Uiso       1.00
      H230          H  0.1254070  0.8891801  0.3938349    0.00000       Uiso       1.00
      O167          O  0.0840006  0.8903368  0.3951262    0.00000       Uiso       1.00
      C480          C  0.1091280  0.8892758  0.3756252    0.00000       Uiso       1.00
      C481          C  0.1325620  0.8890937  0.3303080    0.00000       Uiso       1.00
      C482          C  0.1776951  0.8895535  0.3532615    0.00000       Uiso       1.00
      H231          H  0.1576060  0.8891809  0.3146810    0.00000       Uiso       1.00
      O168          O  0.2014626  0.8903399  0.3560875    0.00000       Uiso       1.00
      C483          C  0.1557715  0.8892771  0.3309596    0.00000       Uiso       1.00
      C484          C  0.0868356  0.8890924  0.3303067    0.00000       Uiso       1.00
      C485          C  0.0651142  0.8895505  0.3532586    0.00000       Uiso       1.00
      O169          O  0.0449578  0.8903357  0.3560834    0.00000       Uiso       1.00
      H232          H  0.0462502  0.8891780  0.3146780    0.00000       Uiso       1.00
      C486          C  0.0644599  0.8892746  0.3309572    0.00000       Uiso       1.00
      C487          C  0.1097790  0.8890931  0.3075249    0.00000       Uiso       1.00
      C488          C  0.0868259  0.8895510  0.2623925    0.00000       Uiso       1.00
      H233          H  0.1254070  0.8891801  0.2824820    0.00000       Uiso       1.00
      O170          O  0.0840005  0.8903366  0.2386254    0.00000       Uiso       1.00
      C489          C  0.1091279  0.8892758  0.2843160    0.00000       Uiso       1.00
      C490          C  0.1325620  0.8890937  0.3532507    0.00000       Uiso       1.00
      C491          C  0.1776951  0.8895535  0.3749728    0.00000       Uiso       1.00
      H234          H  0.1576061  0.8891810  0.3938358    0.00000       Uiso       1.00
      O171          O  0.2014627  0.8903399  0.3951294    0.00000       Uiso       1.00
      C492          C  0.1557716  0.8892772  0.3756264    0.00000       Uiso       1.00
      O172          O  0.6442352  0.7958262  0.8363057    0.00000       Uiso       1.00
       B19          B  0.6570041  0.8222817  0.8222831    0.00000       Uiso       1.00
       B20          B  0.6177793  0.8222806  0.7830583    0.00000       Uiso       1.00
      O173          O  0.6442353  0.8363044  0.7958275    0.00000       Uiso       1.00
      O174          O  0.6037556  0.7958252  0.7958261    0.00000       Uiso       1.00
       B21          B  0.6177793  0.7830574  0.8222815    0.00000       Uiso       1.00
       B22          B  0.0572142  0.2235955  0.8908360    0.00000       Uiso       1.00
       B23          B  0.2164388  0.3828201  0.8908402    0.00000       Uiso       1.00
       B24          B  0.0572143  0.3828158  0.8908360    0.00000       Uiso       1.00
      C493          C  0.1097525  0.3074980  0.8890672    0.00000       Uiso       1.00
      C494          C  0.0867994  0.2623655  0.8895251    0.00000       Uiso       1.00
      H235          H  0.1253805  0.2824551  0.8891541    0.00000       Uiso       1.00
      O175          O  0.0839740  0.2385985  0.8903108    0.00000       Uiso       1.00
      C495          C  0.1091014  0.2842891  0.8892499    0.00000       Uiso       1.00
      C496          C  0.1325355  0.3532238  0.8890678    0.00000       Uiso       1.00
      C497          C  0.1776686  0.3749459  0.8895276    0.00000       Uiso       1.00
      H236          H  0.1575795  0.3938088  0.8891550    0.00000       Uiso       1.00
      O176          O  0.2014362  0.3951024  0.8903139    0.00000       Uiso       1.00
      C498          C  0.1557451  0.3755995  0.8892512    0.00000       Uiso       1.00
      C499          C  0.0868091  0.3302798  0.8890665    0.00000       Uiso       1.00
      C500          C  0.0650877  0.3532316  0.8895245    0.00000       Uiso       1.00
      H237          H  0.0462237  0.3146511  0.8891520    0.00000       Uiso       1.00
      O177          O  0.0449312  0.3560565  0.8903097    0.00000       Uiso       1.00
      C501          C  0.0644334  0.3309302  0.8892488    0.00000       Uiso       1.00
      C502          C  0.1325355  0.3302810  0.8890678    0.00000       Uiso       1.00
      C503          C  0.1776686  0.3532346  0.8895276    0.00000       Uiso       1.00
      O178          O  0.2014362  0.3560606  0.8903139    0.00000       Uiso       1.00
      H238          H  0.1575795  0.3146541  0.8891550    0.00000       Uiso       1.00
      C504          C  0.1557450  0.3309326  0.8892512    0.00000       Uiso       1.00
      C505          C  0.0868091  0.3074974  0.8890665    0.00000       Uiso       1.00
      C506          C  0.0650876  0.2623650  0.8895245    0.00000       Uiso       1.00
      H239          H  0.0462236  0.2824530  0.8891520    0.00000       Uiso       1.00
      O179          O  0.0449312  0.2385974  0.8903097    0.00000       Uiso       1.00
      C507          C  0.0644333  0.2842879  0.8892487    0.00000       Uiso       1.00
      C508          C  0.1097525  0.3532232  0.8890672    0.00000       Uiso       1.00
      C509          C  0.0867995  0.3749434  0.8895251    0.00000       Uiso       1.00
      H240          H  0.1253805  0.3938079  0.8891541    0.00000       Uiso       1.00
      O180          O  0.0839741  0.3950993  0.8903108    0.00000       Uiso       1.00
      C510          C  0.1091015  0.3755983  0.8892499    0.00000       Uiso       1.00
