data_74
_audit_creation_date              0000-00-00
_audit_creation_method            'LanYouShi'
_symmetry_space_group_name_H-M    'P1'
_cell_length_a                    74.4260025
_cell_length_b                    74.4260025
_cell_length_c                    74.4281006
_cell_angle_alpha                 59.9990997
_cell_angle_beta                  120.0009003
_cell_angle_gamma                 120.0018997
loop_
_atom_site_label
_atom_site_type_symbol
_atom_site_fract_x
_atom_site_fract_y
_atom_site_fract_z
_atom_site_U_iso_or_equiv
_atom_site_adp_type
_atom_site_occupancy
        C1          C  0.4128110  0.5390217  0.2866013    0.00000       Uiso       1.00
        C2          C  0.4015287  0.5374048  0.2980281    0.00000       Uiso       1.00
        C3          C  0.4111436  0.5339491  0.3207804    0.00000       Uiso       1.00
        C4          C  0.4339041  0.5374057  0.2980290    0.00000       Uiso       1.00
        C5          C  0.4435648  0.5338547  0.3207802    0.00000       Uiso       1.00
        C6          C  0.4323127  0.5320109  0.3325660    0.00000       Uiso       1.00
        H1          H  0.4674201  0.5982920  0.5402401    0.00000       Uiso       1.00
        H2          H  0.4433633  0.5387428  0.2889567    0.00000       Uiso       1.00
        H3          H  0.3843336  0.5387412  0.2889550    0.00000       Uiso       1.00
        C7          C  0.4611922  0.5874033  0.5873982    0.00000       Uiso       1.00
        C8          C  0.4628091  0.5986856  0.5663060    0.00000       Uiso       1.00
        C9          C  0.4663600  0.5891460  0.5566452    0.00000       Uiso       1.00
       C10          C  0.4628082  0.5663102  0.5986795    0.00000       Uiso       1.00
       C11          C  0.4662634  0.5566283  0.5890645    0.00000       Uiso       1.00
       C12          C  0.4682024  0.5679509  0.5678963    0.00000       Uiso       1.00
        H4          H  0.4019162  0.3290980  0.5327827    0.00000       Uiso       1.00
        H5          H  0.4614710  0.5568510  0.6158739    0.00000       Uiso       1.00
        H6          H  0.4614727  0.6158807  0.5568475    0.00000       Uiso       1.00
       C13          C  0.7136148  0.5874103  0.5874051    0.00000       Uiso       1.00
       C14          C  0.7021868  0.5663168  0.5986862    0.00000       Uiso       1.00
       C15          C  0.6794347  0.5566556  0.5891462    0.00000       Uiso       1.00
       C16          C  0.7021877  0.5986923  0.5663127    0.00000       Uiso       1.00
       C17          C  0.6794348  0.5890762  0.5566298    0.00000       Uiso       1.00
       C18          C  0.6676489  0.5679070  0.5679516    0.00000       Uiso       1.00
        H7          H  0.4599707  0.5327955  0.3291002    0.00000       Uiso       1.00
        H8          H  0.7112611  0.6158877  0.5568545    0.00000       Uiso       1.00
        H9          H  0.7112594  0.5568580  0.6158808    0.00000       Uiso       1.00
       C19          C  0.4128037  0.2865991  0.5390097    0.00000       Uiso       1.00
       C20          C  0.4338971  0.2980272  0.5373940    0.00000       Uiso       1.00
       C21          C  0.4435801  0.3207802  0.5339402    0.00000       Uiso       1.00
       C22          C  0.4015217  0.2980263  0.5373931    0.00000       Uiso       1.00
       C23          C  0.4110619  0.3207782  0.5338429    0.00000       Uiso       1.00
       C24          C  0.4322574  0.3325651  0.5320012    0.00000       Uiso       1.00
       H10          H  0.6711139  0.5402498  0.5982912    0.00000       Uiso       1.00
       C25          C  0.5001066  0.5001088  0.5001044    0.00000       Uiso       1.00
       H11          H  0.3843263  0.2889529  0.5387292    0.00000       Uiso       1.00
       H12          H  0.4433561  0.2889546  0.5387309    0.00000       Uiso       1.00
        S1          S  0.3955779  0.5313143  0.3349304    0.00000       Uiso       1.00
        O1          O  0.4083583  0.5279230  0.3577252    0.00000       Uiso       1.00
        O2          O  0.3904077  0.5509647  0.3254749    0.00000       Uiso       1.00
        O3          O  0.3741188  0.5115693  0.3325675    0.00000       Uiso       1.00
       H13          H  0.3658488  0.5101660  0.3400612    0.00000       Uiso       1.00
        S2          S  0.4706635  0.3349323  0.5313091    0.00000       Uiso       1.00
        O4          O  0.4772871  0.3577273  0.5279194    0.00000       Uiso       1.00
        O5          O  0.4860275  0.3254757  0.5509597    0.00000       Uiso       1.00
        O6          O  0.4700175  0.3325716  0.5115653    0.00000       Uiso       1.00
       H14          H  0.4843794  0.3400664  0.5101640    0.00000       Uiso       1.00
        S3          S  0.4688967  0.5295460  0.6046286    0.00000       Uiso       1.00
        O7          O  0.4722876  0.5229231  0.5918481    0.00000       Uiso       1.00
        O8          O  0.4872320  0.5301498  0.6245534    0.00000       Uiso       1.00
        O9          O  0.4477355  0.5129975  0.6101980    0.00000       Uiso       1.00
       H15          H  0.4491227  0.4986299  0.6184614    0.00000       Uiso       1.00
        S4          S  0.6652839  0.6046399  0.5295475    0.00000       Uiso       1.00
       O10          O  0.6424887  0.5918581  0.5229240    0.00000       Uiso       1.00
       O11          O  0.6674767  0.6245654  0.5301500    0.00000       Uiso       1.00
       O12          O  0.6754677  0.6102098  0.5130011    0.00000       Uiso       1.00
       H16          H  0.6679765  0.6184730  0.4986336    0.00000       Uiso       1.00
       C26          C  0.4425196  0.5279313  0.3569551    0.00000       Uiso       1.00
       C27          C  0.4400002  0.5382919  0.3666368    0.00000       Uiso       1.00
       C28          C  0.4494967  0.5343939  0.3894502    0.00000       Uiso       1.00
       C29          C  0.4548587  0.5135540  0.3708376    0.00000       Uiso       1.00
       C30          C  0.4643367  0.5096378  0.3936461    0.00000       Uiso       1.00
       C31          C  0.4618264  0.5199930  0.4033532    0.00000       Uiso       1.00
       H17          H  0.5021381  0.5716161  0.5269539    0.00000       Uiso       1.00
       H18          H  0.4568236  0.5049447  0.3641040    0.00000       Uiso       1.00
       H19          H  0.4309697  0.5497559  0.3564827    0.00000       Uiso       1.00
       C32          C  0.4722815  0.5578479  0.5576894    0.00000       Uiso       1.00
       C33          C  0.4866617  0.5706818  0.5453533    0.00000       Uiso       1.00
       C34          C  0.4905785  0.5612675  0.5358759    0.00000       Uiso       1.00
       C35          C  0.4619185  0.5352861  0.5602065    0.00000       Uiso       1.00
       C36          C  0.4658171  0.5258672  0.5507104    0.00000       Uiso       1.00
       C37          C  0.4802207  0.5386947  0.5383839    0.00000       Uiso       1.00
       H20          H  0.4285979  0.4037831  0.4980696    0.00000       Uiso       1.00
       H21          H  0.4504532  0.5249458  0.5692355    0.00000       Uiso       1.00
       H22          H  0.4952735  0.5879895  0.5433913    0.00000       Uiso       1.00
       C38          C  0.6432592  0.5576992  0.5578482    0.00000       Uiso       1.00
       C39          C  0.6293747  0.5453679  0.5706793    0.00000       Uiso       1.00
       C40          C  0.6065655  0.5358889  0.5612635    0.00000       Uiso       1.00
       C41          C  0.6335794  0.5602092  0.5352889    0.00000       Uiso       1.00
       C42          C  0.6107656  0.5507103  0.5258691    0.00000       Uiso       1.00
       C43          C  0.5968607  0.5383886  0.5386940    0.00000       Uiso       1.00
       H23          H  0.4732637  0.4980827  0.4037794    0.00000       Uiso       1.00
       H24          H  0.6437359  0.5692334  0.5249516    0.00000       Uiso       1.00
       H25          H  0.6361074  0.5434099  0.5879852    0.00000       Uiso       1.00
       C44          C  0.4423606  0.3569548  0.5279231    0.00000       Uiso       1.00
       C45          C  0.4649211  0.3666360  0.5382915    0.00000       Uiso       1.00
       C46          C  0.4743408  0.3894496  0.5343970    0.00000       Uiso       1.00
       C47          C  0.4295279  0.3708380  0.5135406    0.00000       Uiso       1.00
       C48          C  0.4389436  0.3936471  0.5096272    0.00000       Uiso       1.00
       C49          C  0.4615143  0.4033535  0.5199907    0.00000       Uiso       1.00
       H26          H  0.5964283  0.5269678  0.5716076    0.00000       Uiso       1.00
       H27          H  0.4122210  0.3641047  0.5049265    0.00000       Uiso       1.00
       H28          H  0.4752599  0.3564808  0.5497598    0.00000       Uiso       1.00
        S5          S  0.4460860  0.5487142  0.4006961    0.00000       Uiso       1.00
       O13          O  0.4569489  0.5423976  0.4239970    0.00000       Uiso       1.00
       O14          O  0.4554385  0.5719334  0.3909657    0.00000       Uiso       1.00
       O15          O  0.4213976  0.5427063  0.3956125    0.00000       Uiso       1.00
       H29          H  0.4195743  0.5503025  0.4015646    0.00000       Uiso       1.00
        S6          S  0.5033154  0.4006917  0.5487306    0.00000       Uiso       1.00
       O16          O  0.5094395  0.4239933  0.5424170    0.00000       Uiso       1.00
       O17          O  0.5074389  0.3909569  0.5719468    0.00000       Uiso       1.00
       O18          O  0.5169213  0.3956088  0.5427341    0.00000       Uiso       1.00
       H30          H  0.5322917  0.4015588  0.5503374    0.00000       Uiso       1.00
        S7          S  0.4514962  0.4968901  0.5541173    0.00000       Uiso       1.00
       O19          O  0.4578148  0.4907707  0.5432546    0.00000       Uiso       1.00
       O20          O  0.4570740  0.4842629  0.5770414    0.00000       Uiso       1.00
       O21          O  0.4264908  0.4924338  0.5440454    0.00000       Uiso       1.00
       H31          H  0.4188827  0.4770654  0.5458538    0.00000       Uiso       1.00
        S8          S  0.5995231  0.5541057  0.4968965    0.00000       Uiso       1.00
       O22          O  0.5762213  0.5432425  0.4907735    0.00000       Uiso       1.00
       O23          O  0.6042445  0.5770287  0.4842619    0.00000       Uiso       1.00
       O24          O  0.6100046  0.5440256  0.4924561    0.00000       Uiso       1.00
       H32          H  0.6040563  0.5458278  0.4770902    0.00000       Uiso       1.00
       C50          C  0.4718702  0.5156879  0.4278053    0.00000       Uiso       1.00
       C51          C  0.4607234  0.5141292  0.4394848    0.00000       Uiso       1.00
       C52          C  0.4698839  0.5096688  0.4623758    0.00000       Uiso       1.00
       C53          C  0.4924459  0.5125152  0.4398384    0.00000       Uiso       1.00
       C54          C  0.5015890  0.5080411  0.4627230    0.00000       Uiso       1.00
       C55          C  0.4909055  0.5072731  0.4744644    0.00000       Uiso       1.00
       H33          H  0.4953065  0.5410097  0.4831589    0.00000       Uiso       1.00
       H34          H  0.5015474  0.5134701  0.4315426    0.00000       Uiso       1.00
       H35          H  0.4445012  0.5156470  0.4309988    0.00000       Uiso       1.00
       C56          C  0.4845253  0.5285907  0.5283405    0.00000       Uiso       1.00
       C57          C  0.4876996  0.5403075  0.5077663    0.00000       Uiso       1.00
       C58          C  0.4921754  0.5310413  0.4986230    0.00000       Uiso       1.00
       C59          C  0.4860826  0.5073222  0.5394861    0.00000       Uiso       1.00
       C60          C  0.4905447  0.4980535  0.5303253    0.00000       Uiso       1.00
       C61          C  0.4929429  0.5093838  0.5093054    0.00000       Uiso       1.00
       H36          H  0.4591976  0.4713537  0.5048949    0.00000       Uiso       1.00
       H37          H  0.4845661  0.4980679  0.5557085    0.00000       Uiso       1.00
       H38          H  0.4867463  0.5567511  0.4986688    0.00000       Uiso       1.00
       C62          C  0.5724082  0.5283435  0.5285909    0.00000       Uiso       1.00
       C63          C  0.5603746  0.5077684  0.5403067    0.00000       Uiso       1.00
       C64          C  0.5374892  0.4986257  0.5310389    0.00000       Uiso       1.00
       C65          C  0.5607291  0.5394900  0.5073236    0.00000       Uiso       1.00
       C66          C  0.5378374  0.5303296  0.4980523    0.00000       Uiso       1.00
       C67          C  0.5257482  0.5093088  0.5093809    0.00000       Uiso       1.00
       H39          H  0.5170567  0.5049163  0.4713483    0.00000       Uiso       1.00
       H40          H  0.5692179  0.5557110  0.4980710    0.00000       Uiso       1.00
       H41          H  0.5686707  0.4986670  0.5567492    0.00000       Uiso       1.00
       C68          C  0.4716172  0.4278066  0.5156856    0.00000       Uiso       1.00
       C69          C  0.4928870  0.4394858  0.5141312    0.00000       Uiso       1.00
       C70          C  0.5021583  0.4623782  0.5096691    0.00000       Uiso       1.00
       C71          C  0.4598989  0.4398411  0.5125052    0.00000       Uiso       1.00
       C72          C  0.4691676  0.4627271  0.5080284    0.00000       Uiso       1.00
       C73          C  0.4908279  0.4744682  0.5072663    0.00000       Uiso       1.00
       H42          H  0.5288645  0.4831589  0.5410077    0.00000       Uiso       1.00
       H43          H  0.4434540  0.4315468  0.5134556    0.00000       Uiso       1.00
       H44          H  0.5021423  0.4309965  0.5156572    0.00000       Uiso       1.00
        S9          S  0.4536864  0.5062535  0.4763209    0.00000       Uiso       1.00
       O25          O  0.4658396  0.5018641  0.4993318    0.00000       Uiso       1.00
       O26          O  0.4487919  0.5259465  0.4675145    0.00000       Uiso       1.00
       O27          O  0.4320695  0.4868754  0.4728514    0.00000       Uiso       1.00
       H45          H  0.4234645  0.4850588  0.4802358    0.00000       Uiso       1.00
       S10          S  0.5288900  0.4763262  0.5062611    0.00000       Uiso       1.00
       O28          O  0.5353557  0.4993379  0.5018690    0.00000       Uiso       1.00
       O29          O  0.5446699  0.4675220  0.5259575    0.00000       Uiso       1.00
       O30          O  0.5276670  0.4728560  0.4868884    0.00000       Uiso       1.00
       H46          H  0.5418421  0.4802420  0.4850757    0.00000       Uiso       1.00
       S11          S  0.4939634  0.4713269  0.5465198    0.00000       Uiso       1.00
       O31          O  0.4983540  0.4648623  0.5343647    0.00000       Uiso       1.00
       O32          O  0.5119590  0.4724726  0.5665904    0.00000       Uiso       1.00
       O33          O  0.4727582  0.4543265  0.5517942    0.00000       Uiso       1.00
       H47          H  0.4745616  0.4401474  0.5603915    0.00000       Uiso       1.00
       S12          S  0.5238931  0.5465247  0.4713220    0.00000       Uiso       1.00
       O34          O  0.5008811  0.5343714  0.4648532    0.00000       Uiso       1.00
       O35          O  0.5271153  0.5665988  0.4724621    0.00000       Uiso       1.00
       O36          O  0.5333775  0.5517934  0.4543292    0.00000       Uiso       1.00
       H48          H  0.5259957  0.5603909  0.4401481    0.00000       Uiso       1.00
       C74          C  0.1847628  0.0585583  0.5390314    0.00000       Uiso       1.00
       C75          C  0.1733351  0.0698397  0.5374148    0.00000       Uiso       1.00
       C76          C  0.1505819  0.0602239  0.5339590    0.00000       Uiso       1.00
       C77          C  0.1733351  0.0374652  0.5374148    0.00000       Uiso       1.00
       C78          C  0.1505830  0.0278036  0.5338637    0.00000       Uiso       1.00
       C79          C  0.1387963  0.0390547  0.5320203    0.00000       Uiso       1.00
       H49          H  0.9311088  0.0039347  0.5982983    0.00000       Uiso       1.00
       H50          H  0.1824082  0.0280067  0.5387517    0.00000       Uiso       1.00
       H51          H  0.1824082  0.0870348  0.5387517    0.00000       Uiso       1.00
       C80          C  0.8839482  0.0101601  0.5874100    0.00000       Uiso       1.00
       C81          C  0.9050413  0.0085440  0.5986920    0.00000       Uiso       1.00
       C82          C  0.9147030  0.0049941  0.5891526    0.00000       Uiso       1.00
       C83          C  0.8726668  0.0085440  0.5663176    0.00000       Uiso       1.00
       C84          C  0.8822827  0.0050897  0.5566358    0.00000       Uiso       1.00
       C85          C  0.9034519  0.0031516  0.5679581    0.00000       Uiso       1.00
       H52          H  0.9385726  0.0694444  0.3291140    0.00000       Uiso       1.00
       H53          H  0.8554717  0.0098804  0.5568586    0.00000       Uiso       1.00
       H54          H  0.9144998  0.0098805  0.6158866    0.00000       Uiso       1.00
       C86          C  0.8839487  0.7577441  0.5874100    0.00000       Uiso       1.00
       C87          C  0.8726673  0.7691718  0.5663174    0.00000       Uiso       1.00
       C88          C  0.8822075  0.7919240  0.5566571    0.00000       Uiso       1.00
       C89          C  0.9050418  0.7691718  0.5986919    0.00000       Uiso       1.00
       C90          C  0.9147248  0.7919249  0.5890768    0.00000       Uiso       1.00
       C91          C  0.9034027  0.8037105  0.5679086    0.00000       Uiso       1.00
       H55          H  0.1422630  0.0113977  0.5328041    0.00000       Uiso       1.00
       H56          H  0.9145002  0.7600987  0.6158866    0.00000       Uiso       1.00
       H57          H  0.8554721  0.7600987  0.5568585    0.00000       Uiso       1.00
       C92          C  0.9323468  0.0585580  0.2866161    0.00000       Uiso       1.00
       C93          C  0.9339628  0.0374650  0.2980432    0.00000       Uiso       1.00
       C94          C  0.9374164  0.0277819  0.3207953    0.00000       Uiso       1.00
       C95          C  0.9339628  0.0698395  0.2980432    0.00000       Uiso       1.00
       C96          C  0.9375129  0.0602992  0.3207942    0.00000       Uiso       1.00
       C97          C  0.9393549  0.0391040  0.3325801    0.00000       Uiso       1.00
       H58          H  0.8730622  0.8002445  0.5402520    0.00000       Uiso       1.00
       C98          C  0.9712510  0.9712537  0.5001170    0.00000       Uiso       1.00
       H59          H  0.9326264  0.0870346  0.2889706    0.00000       Uiso       1.00
       H60          H  0.9326263  0.0280065  0.2889706    0.00000       Uiso       1.00
       S13          S  0.1364307  0.0757884  0.5313247    0.00000       Uiso       1.00
       O37          O  0.1136351  0.0630072  0.5279332    0.00000       Uiso       1.00
       O38          O  0.1458861  0.0809585  0.5509748    0.00000       Uiso       1.00
       O39          O  0.1387937  0.0972476  0.5115809    0.00000       Uiso       1.00
       H61          H  0.1312994  0.1055170  0.5101779    0.00000       Uiso       1.00
       S14          S  0.9400480  0.0006990  0.3349461    0.00000       Uiso       1.00
       O40          O  0.9434379  0.9940748  0.3577403    0.00000       Uiso       1.00
       O41          O  0.9203974  0.9853342  0.3254894    0.00000       Uiso       1.00
       O42          O  0.9597930  0.0013461  0.3325856    0.00000       Uiso       1.00
       H62          H  0.9611950  0.9869843  0.3400798    0.00000       Uiso       1.00
       S15          S  0.8667186  0.0024563  0.5295542    0.00000       Uiso       1.00
       O43          O  0.8795006  0.9990661  0.5229313    0.00000       Uiso       1.00
       O44          O  0.8467937  0.9841200  0.5301575    0.00000       Uiso       1.00
       O45          O  0.8611487  0.0236171  0.5130067    0.00000       Uiso       1.00
       H63          H  0.8528854  0.0222298  0.4986396    0.00000       Uiso       1.00
       S16          S  0.9418077  0.8060765  0.6046405    0.00000       Uiso       1.00
       O46          O  0.9484314  0.8288718  0.5918596    0.00000       Uiso       1.00
       O47          O  0.9412048  0.8038833  0.6245652    0.00000       Uiso       1.00
       O48          O  0.9583552  0.7958938  0.6102099    0.00000       Uiso       1.00
       H64          H  0.9727232  0.8033854  0.6184731    0.00000       Uiso       1.00
       C99          C  0.1144062  0.0288469  0.5279405    0.00000       Uiso       1.00
      C100          C  0.1047236  0.0313653  0.5383009    0.00000       Uiso       1.00
      C101          C  0.0819093  0.0218679  0.5344027    0.00000       Uiso       1.00
      C102          C  0.1005236  0.0165077  0.5135632    0.00000       Uiso       1.00
      C103          C  0.0777142  0.0070288  0.5096470    0.00000       Uiso       1.00
      C104          C  0.0680062  0.0095381  0.5200019    0.00000       Uiso       1.00
       H65          H  0.9443980  0.9692189  0.5716223    0.00000       Uiso       1.00
       H66          H  0.1072579  0.0145435  0.5049541    0.00000       Uiso       1.00
       H67          H  0.1148776  0.0403958  0.5497648    0.00000       Uiso       1.00
      C105          C  0.9136602  0.9990731  0.5578552    0.00000       Uiso       1.00
      C106          C  0.9259971  0.9846938  0.5706884    0.00000       Uiso       1.00
      C107          C  0.9354754  0.9807779  0.5612742    0.00000       Uiso       1.00
      C108          C  0.9111429  0.0094367  0.5352944    0.00000       Uiso       1.00
      C109          C  0.9206400  0.0055390  0.5258757    0.00000       Uiso       1.00
      C110          C  0.9329677  0.9911358  0.5387024    0.00000       Uiso       1.00
       H68          H  0.9732862  0.0427634  0.4037962    0.00000       Uiso       1.00
       H69          H  0.9021134  0.0209015  0.5249547    0.00000       Uiso       1.00
       H70          H  0.9279588  0.9760818  0.5879953    0.00000       Uiso       1.00
      C111          C  0.9135062  0.8281001  0.5577017    0.00000       Uiso       1.00
      C112          C  0.9006743  0.8419840  0.5453712    0.00000       Uiso       1.00
      C113          C  0.9100903  0.8647933  0.5358931    0.00000       Uiso       1.00
      C114          C  0.9360664  0.8377810  0.5602119    0.00000       Uiso       1.00
      C115          C  0.9454865  0.8605950  0.5507140    0.00000       Uiso       1.00
      C116          C  0.9326608  0.8744991  0.5383930    0.00000       Uiso       1.00
       H71          H  0.0675813  0.9981014  0.4980918    0.00000       Uiso       1.00
       H72          H  0.9464045  0.8276252  0.5692356    0.00000       Uiso       1.00
       H73          H  0.8833677  0.8352506  0.5434130    0.00000       Uiso       1.00
      C117          C  0.9434327  0.0290007  0.3569688    0.00000       Uiso       1.00
      C118          C  0.9330642  0.0064400  0.3666491    0.00000       Uiso       1.00
      C119          C  0.9369589  0.9970198  0.3894618    0.00000       Uiso       1.00
      C120          C  0.9578153  0.0418335  0.3708521    0.00000       Uiso       1.00
      C121          C  0.9617286  0.0324177  0.3936602    0.00000       Uiso       1.00
      C122          C  0.9513648  0.0098467  0.4033657    0.00000       Uiso       1.00
       H74          H  0.8997456  0.8749300  0.5269725    0.00000       Uiso       1.00
       H75          H  0.9664297  0.0591406  0.3641194    0.00000       Uiso       1.00
       H76          H  0.9215962  0.9961007  0.3564939    0.00000       Uiso       1.00
       S17          S  0.0706621  0.0252775  0.5487226    0.00000       Uiso       1.00
       O49          O  0.0473604  0.0144137  0.5424059    0.00000       Uiso       1.00
       O50          O  0.0803927  0.0159252  0.5719409    0.00000       Uiso       1.00
       O51          O  0.0757455  0.0499657  0.5427156    0.00000       Uiso       1.00
       H77          H  0.0697929  0.0517883  0.5503117    0.00000       Uiso       1.00
       S18          S  0.9226250  0.9680449  0.4007027    0.00000       Uiso       1.00
       O52          O  0.9289384  0.9619207  0.4240035    0.00000       Uiso       1.00
       O53          O  0.8994079  0.9639205  0.3909681    0.00000       Uiso       1.00
       O54          O  0.9286224  0.9544398  0.3956196    0.00000       Uiso       1.00
       H78          H  0.9210188  0.9390693  0.4015690    0.00000       Uiso       1.00
       S19          S  0.9172333  0.0198602  0.4968997    0.00000       Uiso       1.00
       O55          O  0.9280970  0.0135425  0.4907804    0.00000       Uiso       1.00
       O56          O  0.8943084  0.0142815  0.4842728    0.00000       Uiso       1.00
       O57          O  0.9273052  0.0448655  0.4924444    0.00000       Uiso       1.00
       H79          H  0.9254969  0.0524737  0.4770766    0.00000       Uiso       1.00
       S20          S  0.9744603  0.8718387  0.5541096    0.00000       Uiso       1.00
       O58          O  0.9805833  0.8951405  0.5432473    0.00000       Uiso       1.00
       O59          O  0.9870951  0.8671175  0.5770319    0.00000       Uiso       1.00
       O60          O  0.9789016  0.8613580  0.5440295    0.00000       Uiso       1.00
       H80          H  0.9942681  0.8673069  0.5458319    0.00000       Uiso       1.00
      C123          C  0.0435535  0.9994931  0.5156966    0.00000       Uiso       1.00
      C124          C  0.0318727  0.0106393  0.5141382    0.00000       Uiso       1.00
      C125          C  0.0089807  0.0014778  0.5096776    0.00000       Uiso       1.00
      C126          C  0.0315204  0.9789173  0.5125233    0.00000       Uiso       1.00
      C127          C  0.0086350  0.9697733  0.5080491    0.00000       Uiso       1.00
      C128          C  0.9968920  0.9804558  0.5072814    0.00000       Uiso       1.00
       H81          H  0.9881961  0.9760535  0.5410169    0.00000       Uiso       1.00
       H82          H  0.0398169  0.9698166  0.5134780    0.00000       Uiso       1.00
       H83          H  0.0403586  0.0268614  0.5156565    0.00000       Uiso       1.00
      C129          C  0.9430120  0.9868323  0.5285985    0.00000       Uiso       1.00
      C130          C  0.9635872  0.9836589  0.5403149    0.00000       Uiso       1.00
      C131          C  0.9727315  0.9791839  0.5310489    0.00000       Uiso       1.00
      C132          C  0.9318665  0.9852749  0.5073307    0.00000       Uiso       1.00
      C133          C  0.9410282  0.9808136  0.4980621    0.00000       Uiso       1.00
      C134          C  0.9620490  0.9784165  0.5093920    0.00000       Uiso       1.00
       H84          H  0.9664594  0.0121624  0.4713639    0.00000       Uiso       1.00
       H85          H  0.9156434  0.9867907  0.4980766    0.00000       Uiso       1.00
       H86          H  0.9726846  0.9846123  0.5567580    0.00000       Uiso       1.00
      C135          C  0.9427640  0.8989517  0.5283489    0.00000       Uiso       1.00
      C136          C  0.9310478  0.9109848  0.5077747    0.00000       Uiso       1.00
      C137          C  0.9403158  0.9338705  0.4986329    0.00000       Uiso       1.00
      C138          C  0.9640318  0.9106314  0.5394953    0.00000       Uiso       1.00
      C139          C  0.9733034  0.9335232  0.5303360    0.00000       Uiso       1.00
      C140          C  0.9619744  0.9456120  0.5093160    0.00000       Uiso       1.00
       H87          H  0.0000097  0.9543055  0.5049239    0.00000       Uiso       1.00
       H88          H  0.9732848  0.9021429  0.5557157    0.00000       Uiso       1.00
       H89          H  0.9146049  0.9026883  0.4986733    0.00000       Uiso       1.00
      C141          C  0.9556702  0.9997434  0.4278177    0.00000       Uiso       1.00
      C142          C  0.9572249  0.9784740  0.4394961    0.00000       Uiso       1.00
      C143          C  0.9616869  0.9692025  0.4623875    0.00000       Uiso       1.00
      C144          C  0.9588497  0.0114615  0.4398523    0.00000       Uiso       1.00
      C145          C  0.9633262  0.0021928  0.4627373    0.00000       Uiso       1.00
      C146          C  0.9640891  0.9805325  0.4744775    0.00000       Uiso       1.00
       H90          H  0.9303467  0.9424948  0.4831668    0.00000       Uiso       1.00
       H91          H  0.9578990  0.0279062  0.4315587    0.00000       Uiso       1.00
       H92          H  0.9556993  0.9692190  0.4310067    0.00000       Uiso       1.00
       S21          S  0.9950339  0.0176741  0.5062630    0.00000       Uiso       1.00
       O61          O  0.9720222  0.0055201  0.5018733    0.00000       Uiso       1.00
       O62          O  0.0038406  0.0225685  0.5259555    0.00000       Uiso       1.00
       O63          O  0.9985036  0.0392912  0.4868860    0.00000       Uiso       1.00
       H93          H  0.9911186  0.0478955  0.4850697    0.00000       Uiso       1.00
       S22          S  0.9650955  0.9424714  0.4763344    0.00000       Uiso       1.00
       O64          O  0.9694874  0.9360055  0.4993452    0.00000       Uiso       1.00
       O65          O  0.9453986  0.9266911  0.4675300    0.00000       Uiso       1.00
       O66          O  0.9844693  0.9436955  0.4728642    0.00000       Uiso       1.00
       H94          H  0.9862823  0.9295208  0.4802496    0.00000       Uiso       1.00
       S23          S  0.9248335  0.9773948  0.4713362    0.00000       Uiso       1.00
       O67          O  0.9369898  0.9730052  0.4648716    0.00000       Uiso       1.00
       O68          O  0.9047623  0.9593985  0.4724813    0.00000       Uiso       1.00
       O69          O  0.9195589  0.9985997  0.4543369    0.00000       Uiso       1.00
       H95          H  0.9109615  0.9967962  0.4401581    0.00000       Uiso       1.00
       S24          S  0.0000349  0.9474683  0.5465310    0.00000       Uiso       1.00
       O70          O  0.0065038  0.9704803  0.5343786    0.00000       Uiso       1.00
       O71          O  0.9988937  0.9442455  0.5666044    0.00000       Uiso       1.00
       O72          O  0.0170288  0.9379849  0.5517992    0.00000       Uiso       1.00
       H96          H  0.0312103  0.9453672  0.5603968    0.00000       Uiso       1.00
      C147          C  0.9323252  0.2865987  0.0585319    0.00000       Uiso       1.00
      C148          C  0.9339413  0.2980258  0.0698133    0.00000       Uiso       1.00
      C149          C  0.9373970  0.3207788  0.0601984    0.00000       Uiso       1.00
      C150          C  0.9339422  0.2980267  0.0374397    0.00000       Uiso       1.00
      C151          C  0.9374932  0.3207786  0.0277790    0.00000       Uiso       1.00
      C152          C  0.9393361  0.3325648  0.0390302    0.00000       Uiso       1.00
       H97          H  0.8730496  0.5402431  0.0039170    0.00000       Uiso       1.00
       H98          H  0.9326058  0.2889540  0.0279813    0.00000       Uiso       1.00
       H99          H  0.9326041  0.2889524  0.0870076    0.00000       Uiso       1.00
      C153          C  0.8839370  0.5874028  0.0101435    0.00000       Uiso       1.00
      C154          C  0.8726550  0.5663098  0.0085269    0.00000       Uiso       1.00
      C155          C  0.8821953  0.5566490  0.0049768    0.00000       Uiso       1.00
      C156          C  0.9050304  0.5986851  0.0085278    0.00000       Uiso       1.00
      C157          C  0.9147131  0.5890701  0.0050733    0.00000       Uiso       1.00
      C158          C  0.9033908  0.5679010  0.0031347    0.00000       Uiso       1.00
      H100          H  0.1422482  0.5327930  0.0694248    0.00000       Uiso       1.00
      H101          H  0.9144893  0.6158803  0.0098647    0.00000       Uiso       1.00
      H102          H  0.8554596  0.5568505  0.0098630    0.00000       Uiso       1.00
      C159          C  0.8839437  0.5874105  0.7577339    0.00000       Uiso       1.00
      C160          C  0.9050367  0.5986925  0.7691616    0.00000       Uiso       1.00
      C161          C  0.9146972  0.5891525  0.7919130    0.00000       Uiso       1.00
      C162          C  0.8726614  0.5663170  0.7691607    0.00000       Uiso       1.00
      C163          C  0.8822765  0.5566342  0.7919129    0.00000       Uiso       1.00
      C164          C  0.9034454  0.5679569  0.8036984    0.00000       Uiso       1.00
      H103          H  0.9385532  0.3290989  0.0113738    0.00000       Uiso       1.00
      H104          H  0.8554662  0.5568581  0.7600877    0.00000       Uiso       1.00
      H105          H  0.9144960  0.6158879  0.7600893    0.00000       Uiso       1.00
      C165          C  0.1847486  0.5390215  0.0585389    0.00000       Uiso       1.00
      C166          C  0.1733215  0.5374054  0.0374464    0.00000       Uiso       1.00
      C167          C  0.1505685  0.5339509  0.0277635    0.00000       Uiso       1.00
      C168          C  0.1733206  0.5374045  0.0698200    0.00000       Uiso       1.00
      C169          C  0.1505687  0.5338535  0.0602799    0.00000       Uiso       1.00
      C170          C  0.1387827  0.5320114  0.0390852    0.00000       Uiso       1.00
      H106          H  0.9311028  0.5982981  0.8002334    0.00000       Uiso       1.00
      C171          C  0.9712379  0.5001098  0.9712350    0.00000       Uiso       1.00
      H107          H  0.1823932  0.5387410  0.0870146    0.00000       Uiso       1.00
      H108          H  0.1823949  0.5387426  0.0279883    0.00000       Uiso       1.00
       S25          S  0.9400306  0.3349294  0.0757629    0.00000       Uiso       1.00
       O73          O  0.9434220  0.3577249  0.0629826    0.00000       Uiso       1.00
       O74          O  0.9203795  0.3254730  0.0809325    0.00000       Uiso       1.00
       O75          O  0.9597750  0.3325670  0.0972213    0.00000       Uiso       1.00
      H109          H  0.9611776  0.3400609  0.1054907    0.00000       Uiso       1.00
       S26          S  0.1364177  0.5313192  0.0006813    0.00000       Uiso       1.00
       O76          O  0.1136219  0.5279297  0.9940563    0.00000       Uiso       1.00
       O77          O  0.1458742  0.5509715  0.9853166    0.00000       Uiso       1.00
       O78          O  0.1387789  0.5115750  0.0013279    0.00000       Uiso       1.00
      H110          H  0.1312841  0.5101743  0.9869654    0.00000       Uiso       1.00
       S27          S  0.9417958  0.6046355  0.0024405    0.00000       Uiso       1.00
       O79          O  0.9484189  0.5918556  0.9990491    0.00000       Uiso       1.00
       O80          O  0.9411919  0.6245616  0.9841043    0.00000       Uiso       1.00
       O81          O  0.9583435  0.6102055  0.0236009    0.00000       Uiso       1.00
      H111          H  0.9727113  0.6184695  0.0222138    0.00000       Uiso       1.00
       S28          S  0.8667124  0.5295507  0.8060634    0.00000       Uiso       1.00
       O82          O  0.8794935  0.5229274  0.8288578    0.00000       Uiso       1.00
       O83          O  0.8467865  0.5301526  0.8038701    0.00000       Uiso       1.00
       O84          O  0.8611434  0.5130036  0.7958804    0.00000       Uiso       1.00
      H112          H  0.8528799  0.4986355  0.8033714    0.00000       Uiso       1.00
      C172          C  0.9434158  0.3569548  0.0288233    0.00000       Uiso       1.00
      C173          C  0.9330544  0.3666364  0.0313420    0.00000       Uiso       1.00
      C174          C  0.9369525  0.3894506  0.0218455    0.00000       Uiso       1.00
      C175          C  0.9577938  0.3708381  0.0164849    0.00000       Uiso       1.00
      C176          C  0.9617100  0.3936473  0.0070069    0.00000       Uiso       1.00
      C177          C  0.9513541  0.4033544  0.0095164    0.00000       Uiso       1.00
      H113          H  0.8997278  0.5269580  0.9692008    0.00000       Uiso       1.00
      H114          H  0.9664037  0.3641045  0.0145205    0.00000       Uiso       1.00
      H115          H  0.9215899  0.3564817  0.0403719    0.00000       Uiso       1.00
      C178          C  0.9134939  0.5576949  0.9990552    0.00000       Uiso       1.00
      C179          C  0.9006609  0.5453581  0.9846758    0.00000       Uiso       1.00
      C180          C  0.9100759  0.5358807  0.9807597    0.00000       Uiso       1.00
      C181          C  0.9360564  0.5602119  0.0094194    0.00000       Uiso       1.00
      C182          C  0.9454760  0.5507157  0.0055216    0.00000       Uiso       1.00
      C183          C  0.9326487  0.5383893  0.9911175    0.00000       Uiso       1.00
      H116          H  0.0675634  0.4980769  0.0427436    0.00000       Uiso       1.00
      H117          H  0.9463961  0.5692414  0.0208842    0.00000       Uiso       1.00
      H118          H  0.8833532  0.5433956  0.9760641    0.00000       Uiso       1.00
      C184          C  0.9136524  0.5578535  0.8280872    0.00000       Uiso       1.00
      C185          C  0.9259830  0.5706854  0.8419709    0.00000       Uiso       1.00
      C186          C  0.9354611  0.5612696  0.8647794    0.00000       Uiso       1.00
      C187          C  0.9111424  0.5352935  0.8377671    0.00000       Uiso       1.00
      C188          C  0.9206405  0.5258737  0.8605801    0.00000       Uiso       1.00
      C189          C  0.9329614  0.5386994  0.8744842    0.00000       Uiso       1.00
      H119          H  0.9732651  0.4037821  0.9980792    0.00000       Uiso       1.00
      H120          H  0.9021188  0.5249556  0.8276113    0.00000       Uiso       1.00
      H121          H  0.9279409  0.5879918  0.8352382    0.00000       Uiso       1.00
      C190          C  0.1143930  0.5279326  0.0289821    0.00000       Uiso       1.00
      C191          C  0.1047126  0.5383009  0.0064223    0.00000       Uiso       1.00
      C192          C  0.0818983  0.5344065  0.9970014    0.00000       Uiso       1.00
      C193          C  0.1005090  0.5135492  0.0418141    0.00000       Uiso       1.00
      C194          C  0.0776999  0.5096350  0.0323984    0.00000       Uiso       1.00
      C195          C  0.0679943  0.5199986  0.0098284    0.00000       Uiso       1.00
      H122          H  0.9443816  0.5716143  0.8749160    0.00000       Uiso       1.00
      H123          H  0.1072418  0.5049351  0.0591205    0.00000       Uiso       1.00
      H124          H  0.1148676  0.5497707  0.9960828    0.00000       Uiso       1.00
       S29          S  0.9226313  0.4006965  0.0252552    0.00000       Uiso       1.00
       O85          O  0.9289480  0.4239982  0.0143924    0.00000       Uiso       1.00
       O86          O  0.8994123  0.3909651  0.0159029    0.00000       Uiso       1.00
       O87          O  0.9286381  0.3956129  0.0499426    0.00000       Uiso       1.00
      H125          H  0.9210414  0.4015649  0.0517653    0.00000       Uiso       1.00
       S30          S  0.0706571  0.5487402  0.9680278    0.00000       Uiso       1.00
       O88          O  0.0473555  0.5424259  0.9619035    0.00000       Uiso       1.00
       O89          O  0.0803918  0.5719574  0.9639041    0.00000       Uiso       1.00
       O90          O  0.0757412  0.5427437  0.9544228    0.00000       Uiso       1.00
      H126          H  0.0697916  0.5503470  0.9390529    0.00000       Uiso       1.00
       S31          S  0.9744530  0.5541236  0.0198425    0.00000       Uiso       1.00
       O91          O  0.9805732  0.5432607  0.0135246    0.00000       Uiso       1.00
       O92          O  0.9870803  0.5770487  0.0142646    0.00000       Uiso       1.00
       O93          O  0.9789083  0.5440515  0.0448467    0.00000       Uiso       1.00
      H127          H  0.9942766  0.5458605  0.0524548    0.00000       Uiso       1.00
       S32          S  0.9172452  0.4969002  0.8718228    0.00000       Uiso       1.00
       O94          O  0.9281076  0.4907773  0.8951237    0.00000       Uiso       1.00
       O95          O  0.8943222  0.4842646  0.8671014    0.00000       Uiso       1.00
       O96          O  0.9273263  0.4924600  0.8613423    0.00000       Uiso       1.00
      H128          H  0.9255241  0.4770935  0.8672906    0.00000       Uiso       1.00
      C196          C  0.9556586  0.4278082  0.9994714    0.00000       Uiso       1.00
      C197          C  0.9572170  0.4394872  0.0106186    0.00000       Uiso       1.00
      C198          C  0.9616776  0.4623791  0.0014580    0.00000       Uiso       1.00
      C199          C  0.9588323  0.4398417  0.9788967    0.00000       Uiso       1.00
      C200          C  0.9633064  0.4627271  0.9697534    0.00000       Uiso       1.00
      C201          C  0.9640735  0.4744688  0.9804361    0.00000       Uiso       1.00
      H129          H  0.9303359  0.4831626  0.9760342    0.00000       Uiso       1.00
      H130          H  0.9578781  0.4315456  0.9697959    0.00000       Uiso       1.00
      H131          H  0.9556985  0.4310009  0.0268400    0.00000       Uiso       1.00
      C202          C  0.9427536  0.5283460  0.9868138    0.00000       Uiso       1.00
      C203          C  0.9310371  0.5077708  0.9836400    0.00000       Uiso       1.00
      C204          C  0.9403040  0.4986274  0.9791649    0.00000       Uiso       1.00
      C205          C  0.9640223  0.5394924  0.9852568    0.00000       Uiso       1.00
      C206          C  0.9732918  0.5303317  0.9807955    0.00000       Uiso       1.00
      C207          C  0.9619619  0.5093108  0.9783977    0.00000       Uiso       1.00
      H132          H  0.9999920  0.5049005  0.0121435    0.00000       Uiso       1.00
      H133          H  0.9732764  0.5557156  0.9867731    0.00000       Uiso       1.00
      H134          H  0.9145933  0.4986727  0.9845930    0.00000       Uiso       1.00
      C208          C  0.9430057  0.5285963  0.8989359    0.00000       Uiso       1.00
      C209          C  0.9635804  0.5403130  0.9109690    0.00000       Uiso       1.00
      C210          C  0.9727223  0.5310452  0.9338537    0.00000       Uiso       1.00
      C211          C  0.9318588  0.5073281  0.9106146    0.00000       Uiso       1.00
      C212          C  0.9410183  0.4980567  0.9335055    0.00000       Uiso       1.00
      C213          C  0.9620388  0.5093863  0.9455944    0.00000       Uiso       1.00
      H135          H  0.9664319  0.4713527  0.9542865    0.00000       Uiso       1.00
      H136          H  0.9156380  0.4980747  0.9021261    0.00000       Uiso       1.00
      H137          H  0.9726821  0.5567562  0.9026732    0.00000       Uiso       1.00
      C214          C  0.0435406  0.5156935  0.9997243    0.00000       Uiso       1.00
      C215          C  0.0318622  0.5141388  0.9784554    0.00000       Uiso       1.00
      C216          C  0.0089699  0.5096759  0.9691841    0.00000       Uiso       1.00
      C217          C  0.0315058  0.5125118  0.0114429    0.00000       Uiso       1.00
      C218          C  0.0086198  0.5080343  0.0021743    0.00000       Uiso       1.00
      C219          C  0.9968784  0.5072727  0.9805137    0.00000       Uiso       1.00
      H138          H  0.9881887  0.5410147  0.9424780    0.00000       Uiso       1.00
      H139          H  0.0397993  0.5134625  0.0278871    0.00000       Uiso       1.00
      H140          H  0.0403523  0.5156651  0.9692008    0.00000       Uiso       1.00
       S33          S  0.9650915  0.4763246  0.0176543    0.00000       Uiso       1.00
       O97          O  0.9694812  0.4993363  0.0055013    0.00000       Uiso       1.00
       O98          O  0.9453980  0.4675175  0.0225482    0.00000       Uiso       1.00
       O99          O  0.9844691  0.4728556  0.0392707    0.00000       Uiso       1.00
      H141          H  0.9862850  0.4802403  0.0478749    0.00000       Uiso       1.00
       S34          S  0.9950225  0.5062673  0.9424537    0.00000       Uiso       1.00
      O100          O  0.9720107  0.5018744  0.9359878    0.00000       Uiso       1.00
      O101          O  0.0038279  0.5259645  0.9266744    0.00000       Uiso       1.00
      O102          O  0.9984934  0.4868941  0.9436772    0.00000       Uiso       1.00
      H142          H  0.9911081  0.4850812  0.9295028    0.00000       Uiso       1.00
       S35          S  0.0000195  0.5465274  0.9773772    0.00000       Uiso       1.00
      O103          O  0.0064848  0.5343721  0.9729875    0.00000       Uiso       1.00
      O104          O  0.9988737  0.5665985  0.9593821    0.00000       Uiso       1.00
      O105          O  0.0170190  0.5518024  0.9985816    0.00000       Uiso       1.00
      H143          H  0.0311984  0.5604004  0.9967784    0.00000       Uiso       1.00
       S36          S  0.9248228  0.4713252  0.9474494    0.00000       Uiso       1.00
      O106          O  0.9369752  0.4648566  0.9704605    0.00000       Uiso       1.00
      O107          O  0.9047482  0.4724648  0.9442268    0.00000       Uiso       1.00
      O108          O  0.9195549  0.4543318  0.9379659    0.00000       Uiso       1.00
      H144          H  0.9109571  0.4401500  0.9453475    0.00000       Uiso       1.00
      C220          C  0.4127895  0.5389997  0.0585173    0.00000       Uiso       1.00
      C221          C  0.4338825  0.5373838  0.0697992    0.00000       Uiso       1.00
      C222          C  0.4435652  0.5339290  0.0601845    0.00000       Uiso       1.00
      C223          C  0.4015081  0.5373838  0.0374248    0.00000       Uiso       1.00
      C224          C  0.4110485  0.5338336  0.0277642    0.00000       Uiso       1.00
      C225          C  0.4322434  0.5319908  0.0390159    0.00000       Uiso       1.00
      H145          H  0.6711038  0.5982843  0.0039114    0.00000       Uiso       1.00
      H146          H  0.3843130  0.5387202  0.0279658    0.00000       Uiso       1.00
      H147          H  0.4433410  0.5387202  0.0869939    0.00000       Uiso       1.00
      C226          C  0.7136036  0.5873981  0.0101388    0.00000       Uiso       1.00
      C227          C  0.7021759  0.5986795  0.0085222    0.00000       Uiso       1.00
      C228          C  0.6794238  0.5891390  0.0049712    0.00000       Uiso       1.00
      C229          C  0.7021759  0.5663050  0.0085222    0.00000       Uiso       1.00
      C230          C  0.6794228  0.5566222  0.0050668    0.00000       Uiso       1.00
      C231          C  0.6676373  0.5679439  0.0031282    0.00000       Uiso       1.00
      H148          H  0.4599499  0.3290842  0.0694056    0.00000       Uiso       1.00
      H149          H  0.7112489  0.5568466  0.0098591    0.00000       Uiso       1.00
      H150          H  0.7112490  0.6158746  0.0098591    0.00000       Uiso       1.00
      C232          C  0.4611873  0.5873986  0.7577221    0.00000       Uiso       1.00
      C233          C  0.4628033  0.5663056  0.7691493    0.00000       Uiso       1.00
      C234          C  0.4663540  0.5566442  0.7919004    0.00000       Uiso       1.00
      C235          C  0.4628033  0.5986800  0.7691493    0.00000       Uiso       1.00
      C236          C  0.4662572  0.5890639  0.7919013    0.00000       Uiso       1.00
      C237          C  0.4681960  0.5678951  0.8036862    0.00000       Uiso       1.00
      H151          H  0.4019033  0.5327744  0.0113587    0.00000       Uiso       1.00
      H152          H  0.4614669  0.6158751  0.7600766    0.00000       Uiso       1.00
      H153          H  0.4614669  0.5568471  0.7600766    0.00000       Uiso       1.00
      C238          C  0.4127893  0.2865842  0.0585173    0.00000       Uiso       1.00
      C239          C  0.4015080  0.2980118  0.0374248    0.00000       Uiso       1.00
      C240          C  0.4111244  0.3207650  0.0277428    0.00000       Uiso       1.00
      C241          C  0.4338824  0.2980119  0.0697992    0.00000       Uiso       1.00
      C242          C  0.4435441  0.3207640  0.0602600    0.00000       Uiso       1.00
      C243          C  0.4322934  0.3325505  0.0390654    0.00000       Uiso       1.00
      H154          H  0.4674141  0.5402386  0.8002204    0.00000       Uiso       1.00
      C244          C  0.5000918  0.5000960  0.9712219    0.00000       Uiso       1.00
      H155          H  0.4433409  0.2889388  0.0869939    0.00000       Uiso       1.00
      H156          H  0.3843129  0.2889388  0.0279658    0.00000       Uiso       1.00
       S37          S  0.4706472  0.5312953  0.0757497    0.00000       Uiso       1.00
      O109          O  0.4772712  0.5279049  0.0629695    0.00000       Uiso       1.00
      O110          O  0.4860125  0.5509460  0.0809203    0.00000       Uiso       1.00
      O111          O  0.4699983  0.5115502  0.0972076    0.00000       Uiso       1.00
      H157          H  0.4843594  0.5101477  0.1054773    0.00000       Uiso       1.00
       S38          S  0.3955613  0.3349165  0.0006605    0.00000       Uiso       1.00
      O112          O  0.4083428  0.3577127  0.9940365    0.00000       Uiso       1.00
      O113          O  0.3903913  0.3254612  0.9852954    0.00000       Uiso       1.00
      O114          O  0.3741019  0.3325548  0.0013064    0.00000       Uiso       1.00
      H158          H  0.3658326  0.3400501  0.9869440    0.00000       Uiso       1.00
       S39          S  0.6652714  0.5295399  0.0024328    0.00000       Uiso       1.00
      O115          O  0.6424753  0.5229167  0.9990405    0.00000       Uiso       1.00
      O116          O  0.6674646  0.5301452  0.9840967    0.00000       Uiso       1.00
      O117          O  0.6754539  0.5129918  0.0235930    0.00000       Uiso       1.00
      H159          H  0.6679624  0.4986243  0.0222053    0.00000       Uiso       1.00
       S40          S  0.4688889  0.6046270  0.8060522    0.00000       Uiso       1.00
      O118          O  0.4722786  0.5918449  0.8288465    0.00000       Uiso       1.00
      O119          O  0.4872245  0.6245529  0.8038600    0.00000       Uiso       1.00
      O120          O  0.4477275  0.6101958  0.7958689    0.00000       Uiso       1.00
      H160          H  0.4491140  0.6184585  0.8033601    0.00000       Uiso       1.00
      C245          C  0.4423471  0.5279121  0.0288093    0.00000       Uiso       1.00
      C246          C  0.4649096  0.5382737  0.0313288    0.00000       Uiso       1.00
      C247          C  0.4743295  0.5343766  0.0218325    0.00000       Uiso       1.00
      C248          C  0.4295132  0.5135348  0.0164700    0.00000       Uiso       1.00
      C249          C  0.4389285  0.5096196  0.0069922    0.00000       Uiso       1.00
      C250          C  0.4615019  0.5199757  0.0095027    0.00000       Uiso       1.00
      H161          H  0.5964207  0.5716069  0.9691923    0.00000       Uiso       1.00
      H162          H  0.4122047  0.5049248  0.0145049    0.00000       Uiso       1.00
      H163          H  0.4752500  0.5497376  0.0403594    0.00000       Uiso       1.00
      C251          C  0.6432467  0.5578408  0.9990476    0.00000       Uiso       1.00
      C252          C  0.6293636  0.5706739  0.9846683    0.00000       Uiso       1.00
      C253          C  0.6065542  0.5612587  0.9807513    0.00000       Uiso       1.00
      C254          C  0.6335654  0.5352778  0.0094110    0.00000       Uiso       1.00
      C255          C  0.6107509  0.5258582  0.0055122    0.00000       Uiso       1.00
      C256          C  0.5968469  0.5386857  0.9911082    0.00000       Uiso       1.00
      H164          H  0.4732398  0.4037687  0.0427269    0.00000       Uiso       1.00
      H165          H  0.6437200  0.5249382  0.0208757    0.00000       Uiso       1.00
      H166          H  0.6360977  0.5879818  0.9760572    0.00000       Uiso       1.00
      C257          C  0.4722742  0.5576871  0.8280748    0.00000       Uiso       1.00
      C258          C  0.4866594  0.5453565  0.8419586    0.00000       Uiso       1.00
      C259          C  0.4905736  0.5358775  0.8647670    0.00000       Uiso       1.00
      C260          C  0.4619038  0.5601961  0.8377545    0.00000       Uiso       1.00
      C261          C  0.4657988  0.5506971  0.8605674    0.00000       Uiso       1.00
      C262          C  0.4802077  0.5383762  0.8744715    0.00000       Uiso       1.00
      H167          H  0.4285790  0.4980652  0.9980639    0.00000       Uiso       1.00
      H168          H  0.4504337  0.5692198  0.8275986    0.00000       Uiso       1.00
      H169          H  0.4952753  0.5433992  0.8352261    0.00000       Uiso       1.00
      C263          C  0.4425021  0.3569403  0.0289632    0.00000       Uiso       1.00
      C264          C  0.4399914  0.3666217  0.0064037    0.00000       Uiso       1.00
      C265          C  0.4494905  0.3894363  0.9969836    0.00000       Uiso       1.00
      C266          C  0.4548355  0.3708236  0.0417960    0.00000       Uiso       1.00
      C267          C  0.4643157  0.3936328  0.0323812    0.00000       Uiso       1.00
      C268          C  0.4618151  0.4033394  0.0098114    0.00000       Uiso       1.00
      H170          H  0.5021345  0.5269569  0.8749036    0.00000       Uiso       1.00
      H171          H  0.4567948  0.3640901  0.0591022    0.00000       Uiso       1.00
      H172          H  0.4309652  0.3564675  0.9960635    0.00000       Uiso       1.00
       S41          S  0.5033075  0.5486979  0.0252434    0.00000       Uiso       1.00
      O121          O  0.5094296  0.5423821  0.0143807    0.00000       Uiso       1.00
      O122          O  0.5074437  0.5719170  0.0158919    0.00000       Uiso       1.00
      O123          O  0.5169047  0.5426903  0.0499310    0.00000       Uiso       1.00
      H173          H  0.5322769  0.5502872  0.0517544    0.00000       Uiso       1.00
       S42          S  0.4460919  0.4006787  0.9680102    0.00000       Uiso       1.00
      O124          O  0.4569559  0.4239804  0.9618869    0.00000       Uiso       1.00
      O125          O  0.4554507  0.3909448  0.9638865    0.00000       Uiso       1.00
      O126          O  0.4214056  0.3955949  0.9544045    0.00000       Uiso       1.00
      H174          H  0.4195887  0.4015451  0.9390347    0.00000       Uiso       1.00
       S43          S  0.5995014  0.4968807  0.0198320    0.00000       Uiso       1.00
      O127          O  0.5761997  0.4907605  0.0135133    0.00000       Uiso       1.00
      O128          O  0.6042212  0.4842544  0.0142539    0.00000       Uiso       1.00
      O129          O  0.6099785  0.4924245  0.0448364    0.00000       Uiso       1.00
      H175          H  0.6040265  0.4770561  0.0524439    0.00000       Uiso       1.00
       S44          S  0.4514629  0.5540913  0.8718097    0.00000       Uiso       1.00
      O130          O  0.4577785  0.5432281  0.8951105    0.00000       Uiso       1.00
      O131          O  0.4570298  0.5770141  0.8670891    0.00000       Uiso       1.00
      O132          O  0.4264601  0.5440103  0.8613282    0.00000       Uiso       1.00
      H176          H  0.4188440  0.5458120  0.8672764    0.00000       Uiso       1.00
      C269          C  0.4716055  0.5156723  0.9994579    0.00000       Uiso       1.00
      C270          C  0.4928746  0.5141137  0.0106055    0.00000       Uiso       1.00
      C271          C  0.5021456  0.5096542  0.0014451    0.00000       Uiso       1.00
      C272          C  0.4598902  0.5124996  0.9788827    0.00000       Uiso       1.00
      C273          C  0.4691584  0.5080264  0.9697396    0.00000       Uiso       1.00
      C274          C  0.4908162  0.5072594  0.9804228    0.00000       Uiso       1.00
      H177          H  0.5288476  0.5409973  0.9760228    0.00000       Uiso       1.00
      H178          H  0.4434471  0.5134538  0.9697815    0.00000       Uiso       1.00
      H179          H  0.5021286  0.5156316  0.0268273    0.00000       Uiso       1.00
      C275          C  0.5723940  0.5285807  0.9868035    0.00000       Uiso       1.00
      C276          C  0.5603613  0.5402966  0.9836295    0.00000       Uiso       1.00
      C277          C  0.5374750  0.5310295  0.9791536    0.00000       Uiso       1.00
      C278          C  0.5607136  0.5073122  0.9852455    0.00000       Uiso       1.00
      C279          C  0.5378212  0.4980426  0.9807833    0.00000       Uiso       1.00
      C280          C  0.5257325  0.5093720  0.9783855    0.00000       Uiso       1.00
      H180          H  0.5170374  0.4713406  0.0121300    0.00000       Uiso       1.00
      H181          H  0.5691990  0.4980586  0.9867617    0.00000       Uiso       1.00
      H182          H  0.5686609  0.5567402  0.9845833    0.00000       Uiso       1.00
      C281          C  0.4845119  0.5283310  0.8989230    0.00000       Uiso       1.00
      C282          C  0.4876865  0.5077564  0.9109557    0.00000       Uiso       1.00
      C283          C  0.4921613  0.4986135  0.9338402    0.00000       Uiso       1.00
      C284          C  0.4860696  0.5394769  0.9106022    0.00000       Uiso       1.00
      C285          C  0.4905294  0.5303165  0.9334929    0.00000       Uiso       1.00
      C286          C  0.4929268  0.5092960  0.9455811    0.00000       Uiso       1.00
      H183          H  0.4591911  0.5049015  0.9542723    0.00000       Uiso       1.00
      H184          H  0.4845489  0.5556977  0.9021140    0.00000       Uiso       1.00
      H185          H  0.4867319  0.4986553  0.9026596    0.00000       Uiso       1.00
      C287          C  0.4718598  0.4277934  0.9997083    0.00000       Uiso       1.00
      C288          C  0.4607146  0.4394724  0.9784394    0.00000       Uiso       1.00
      C289          C  0.4698735  0.4623648  0.9691690    0.00000       Uiso       1.00
      C290          C  0.4924332  0.4398276  0.0114278    0.00000       Uiso       1.00
      C291          C  0.5015740  0.4627137  0.0021601    0.00000       Uiso       1.00
      C292          C  0.4908918  0.4744554  0.9804995    0.00000       Uiso       1.00
      H186          H  0.4952883  0.4831471  0.9424642    0.00000       Uiso       1.00
      H187          H  0.5015346  0.4315337  0.0278720    0.00000       Uiso       1.00
      H188          H  0.4444955  0.4309826  0.9691841    0.00000       Uiso       1.00
       S45          S  0.5288740  0.5062401  0.0176420    0.00000       Uiso       1.00
      O133          O  0.5353431  0.5018515  0.0054891    0.00000       Uiso       1.00
      O134          O  0.5446554  0.5259333  0.0225370    0.00000       Uiso       1.00
      O135          O  0.5276431  0.4868619  0.0392578    0.00000       Uiso       1.00
      H189          H  0.5418165  0.4850459  0.0478624    0.00000       Uiso       1.00
       S46          S  0.4536814  0.4763123  0.9424385    0.00000       Uiso       1.00
      O136          O  0.4658355  0.4993242  0.9359736    0.00000       Uiso       1.00
      O137          O  0.4487941  0.4675084  0.9266588    0.00000       Uiso       1.00
      O138          O  0.4320602  0.4728408  0.9436614    0.00000       Uiso       1.00
      H190          H  0.4234582  0.4802265  0.9294869    0.00000       Uiso       1.00
       S47          S  0.5238705  0.4713160  0.9773639    0.00000       Uiso       1.00
      O139          O  0.5008591  0.4648505  0.9729733    0.00000       Uiso       1.00
      O140          O  0.5270918  0.4724624  0.9593688    0.00000       Uiso       1.00
      O141          O  0.5333501  0.4543161  0.9985681    0.00000       Uiso       1.00
      H191          H  0.5259648  0.4401370  0.9967643    0.00000       Uiso       1.00
       S48          S  0.4939379  0.5465109  0.9474373    0.00000       Uiso       1.00
      O142          O  0.4983277  0.5343576  0.9704483    0.00000       Uiso       1.00
      O143          O  0.5119305  0.5665856  0.9442158    0.00000       Uiso       1.00
      O144          O  0.4727283  0.5517786  0.9379533    0.00000       Uiso       1.00
      H192          H  0.4745263  0.5603758  0.9453352    0.00000       Uiso       1.00
      C293          C  0.4128108  0.0585435  0.2866014    0.00000       Uiso       1.00
      C294          C  0.4339038  0.0698255  0.2980291    0.00000       Uiso       1.00
      C295          C  0.4435856  0.0602099  0.3207814    0.00000       Uiso       1.00
      C296          C  0.4015284  0.0374501  0.2980281    0.00000       Uiso       1.00
      C297          C  0.4110679  0.0277886  0.3207793    0.00000       Uiso       1.00
      C298          C  0.4322629  0.0390404  0.3325660    0.00000       Uiso       1.00
      H193          H  0.6711162  0.0039291  0.5402460    0.00000       Uiso       1.00
      H194          H  0.3843333  0.0279911  0.2889551    0.00000       Uiso       1.00
      H195          H  0.4433631  0.0870209  0.2889567    0.00000       Uiso       1.00
      C299          C  0.7136148  0.0101554  0.5874053    0.00000       Uiso       1.00
      C300          C  0.7021877  0.0085393  0.5663128    0.00000       Uiso       1.00
      C301          C  0.6794358  0.0049885  0.5566513    0.00000       Uiso       1.00
      C302          C  0.7021868  0.0085384  0.5986863    0.00000       Uiso       1.00
      C303          C  0.6794339  0.0050832  0.5890706    0.00000       Uiso       1.00
      C304          C  0.6676489  0.0031451  0.5679020    0.00000       Uiso       1.00
      H196          H  0.4599645  0.0694254  0.5327843    0.00000       Uiso       1.00
      H197          H  0.7112594  0.0098749  0.6158810    0.00000       Uiso       1.00
      H198          H  0.7112611  0.0098765  0.5568547    0.00000       Uiso       1.00
      C305          C  0.4611923  0.7577323  0.5873981    0.00000       Uiso       1.00
      C306          C  0.4628083  0.7691594  0.5986795    0.00000       Uiso       1.00
      C307          C  0.4663600  0.7919115  0.5891403    0.00000       Uiso       1.00
      C308          C  0.4628092  0.7691603  0.5663059    0.00000       Uiso       1.00
      C309          C  0.4662641  0.7919133  0.5566238    0.00000       Uiso       1.00
      C310          C  0.4682029  0.8036982  0.5679460    0.00000       Uiso       1.00
      H199          H  0.4019221  0.0113825  0.3290986    0.00000       Uiso       1.00
      H200          H  0.4614728  0.7600877  0.5568475    0.00000       Uiso       1.00
      H201          H  0.4614711  0.7600861  0.6158739    0.00000       Uiso       1.00
      C311          C  0.4128036  0.0585366  0.5390097    0.00000       Uiso       1.00
      C312          C  0.4015216  0.0374435  0.5373932    0.00000       Uiso       1.00
      C313          C  0.4111379  0.0277613  0.5339393    0.00000       Uiso       1.00
      C314          C  0.4338970  0.0698189  0.5373940    0.00000       Uiso       1.00
      C315          C  0.4435585  0.0602795  0.5338438    0.00000       Uiso       1.00
      C316          C  0.4323073  0.0390843  0.5320012    0.00000       Uiso       1.00
      H202          H  0.4674201  0.8002315  0.5982855    0.00000       Uiso       1.00
      C317          C  0.5001055  0.9712405  0.5001044    0.00000       Uiso       1.00
      H203          H  0.4433559  0.0870140  0.5387309    0.00000       Uiso       1.00
      H204          H  0.3843262  0.0279843  0.5387293    0.00000       Uiso       1.00
       S49          S  0.4706677  0.0757751  0.3349326    0.00000       Uiso       1.00
      O145          O  0.4772907  0.0629940  0.3577272    0.00000       Uiso       1.00
      O146          O  0.4860334  0.0809461  0.3254776    0.00000       Uiso       1.00
      O147          O  0.4700195  0.0972337  0.3325703    0.00000       Uiso       1.00
      H205          H  0.4843806  0.1055034  0.3400646    0.00000       Uiso       1.00
       S50          S  0.3955741  0.0006783  0.5313069    0.00000       Uiso       1.00
      O148          O  0.4083565  0.9940551  0.5279174    0.00000       Uiso       1.00
      O149          O  0.3904040  0.9853131  0.5509571    0.00000       Uiso       1.00
      O150          O  0.3741152  0.0013248  0.5115626    0.00000       Uiso       1.00
      H206          H  0.3658466  0.9869629  0.5101607    0.00000       Uiso       1.00
       S51          S  0.6652820  0.0024487  0.6046343    0.00000       Uiso       1.00
      O151          O  0.6424873  0.9990577  0.5918530    0.00000       Uiso       1.00
      O152          O  0.6674752  0.9841124  0.6245586    0.00000       Uiso       1.00
      O153          O  0.6754649  0.0236093  0.6102046    0.00000       Uiso       1.00
      H207          H  0.6679732  0.0222214  0.6184677    0.00000       Uiso       1.00
       S52          S  0.4688970  0.8060653  0.5295421    0.00000       Uiso       1.00
      O154          O  0.4722875  0.8288604  0.5229193    0.00000       Uiso       1.00
      O155          O  0.4872324  0.8038731  0.5301449    0.00000       Uiso       1.00
      O156          O  0.4477357  0.7958822  0.5129948    0.00000       Uiso       1.00
      H208          H  0.4491228  0.8033741  0.4986275    0.00000       Uiso       1.00
      C318          C  0.4423656  0.0288327  0.3569552    0.00000       Uiso       1.00
      C319          C  0.4649279  0.0313521  0.3666375    0.00000       Uiso       1.00
      C320          C  0.4743468  0.0218549  0.3894509    0.00000       Uiso       1.00
      C321          C  0.4295308  0.0164927  0.3708370    0.00000       Uiso       1.00
      C322          C  0.4389452  0.0070141  0.3936454    0.00000       Uiso       1.00
      C323          C  0.4615184  0.0095243  0.4033532    0.00000       Uiso       1.00
      H209          H  0.5964336  0.9692103  0.5269566    0.00000       Uiso       1.00
      H210          H  0.4122225  0.0145278  0.3641028    0.00000       Uiso       1.00
      H211          H  0.4752688  0.0403832  0.3564840    0.00000       Uiso       1.00
      C324          C  0.6432596  0.9990657  0.5576943    0.00000       Uiso       1.00
      C325          C  0.6293764  0.9846862  0.5453574    0.00000       Uiso       1.00
      C326          C  0.6065672  0.9807694  0.5358793    0.00000       Uiso       1.00
      C327          C  0.6335775  0.0094283  0.5602115    0.00000       Uiso       1.00
      C328          C  0.6107631  0.0055297  0.5507145    0.00000       Uiso       1.00
      C329          C  0.5968602  0.9911265  0.5383872    0.00000       Uiso       1.00
      H212          H  0.4732546  0.0427468  0.4980709    0.00000       Uiso       1.00
      H213          H  0.6437321  0.0208931  0.5692410    0.00000       Uiso       1.00
      H214          H  0.6361104  0.9760749  0.5433955    0.00000       Uiso       1.00
      C330          C  0.4722821  0.8280879  0.5578434    0.00000       Uiso       1.00
      C331          C  0.4866673  0.8419717  0.5706754    0.00000       Uiso       1.00
      C332          C  0.4905825  0.8647808  0.5612603    0.00000       Uiso       1.00
      C333          C  0.4619127  0.8377684  0.5352841    0.00000       Uiso       1.00
      C334          C  0.4658086  0.8605822  0.5258651    0.00000       Uiso       1.00
      C335          C  0.4802175  0.8744863  0.5386908    0.00000       Uiso       1.00
      H215          H  0.4285963  0.9980861  0.4037783    0.00000       Uiso       1.00
      H216          H  0.4504425  0.8276124  0.5249462    0.00000       Uiso       1.00
      H217          H  0.4952826  0.8352385  0.5879813    0.00000       Uiso       1.00
      C336          C  0.4425157  0.0289820  0.5279231    0.00000       Uiso       1.00
      C337          C  0.4400041  0.0064215  0.5382908    0.00000       Uiso       1.00
      C338          C  0.4495040  0.9970021  0.5343964    0.00000       Uiso       1.00
      C339          C  0.4548499  0.0418155  0.5135413    0.00000       Uiso       1.00
      C340          C  0.4643299  0.0324006  0.5096279    0.00000       Uiso       1.00
      C341          C  0.4618284  0.0098298  0.5199908    0.00000       Uiso       1.00
      H218          H  0.5021434  0.8749176  0.5716050    0.00000       Uiso       1.00
      H219          H  0.4568100  0.0591225  0.5049278    0.00000       Uiso       1.00
      H220          H  0.4309784  0.9960817  0.5497586    0.00000       Uiso       1.00
       S53          S  0.5033245  0.0252656  0.4006978    0.00000       Uiso       1.00
      O157          O  0.5094458  0.0144019  0.4239985    0.00000       Uiso       1.00
      O158          O  0.5074607  0.0159141  0.3909672    0.00000       Uiso       1.00
      O159          O  0.5169227  0.0499541  0.3956153    0.00000       Uiso       1.00
      H221          H  0.5322947  0.0517773  0.4015678    0.00000       Uiso       1.00
       S54          S  0.4461042  0.9680275  0.5487290    0.00000       Uiso       1.00
      O160          O  0.4569682  0.9619042  0.5424156    0.00000       Uiso       1.00
      O161          O  0.4554622  0.9639031  0.5719454    0.00000       Uiso       1.00
      O162          O  0.4214177  0.9544215  0.5427314    0.00000       Uiso       1.00
      H222          H  0.4196002  0.9390512  0.5503343    0.00000       Uiso       1.00
       S55          S  0.5995139  0.0198497  0.5541216    0.00000       Uiso       1.00
      O163          O  0.5762123  0.0135312  0.5432580    0.00000       Uiso       1.00
      O164          O  0.6042329  0.0142709  0.5770456    0.00000       Uiso       1.00
      O165          O  0.6099921  0.0448552  0.5440507    0.00000       Uiso       1.00
      H223          H  0.6040403  0.0524628  0.5458592    0.00000       Uiso       1.00
       S56          S  0.4514738  0.8718256  0.4968924    0.00000       Uiso       1.00
      O166          O  0.4577903  0.8951273  0.4907702    0.00000       Uiso       1.00
      O167          O  0.4570409  0.8671052  0.4842578    0.00000       Uiso       1.00
      O168          O  0.4264708  0.8613439  0.4924510    0.00000       Uiso       1.00
      H224          H  0.4188554  0.8672926  0.4770850    0.00000       Uiso       1.00
      C342          C  0.4716222  0.9994794  0.4278054    0.00000       Uiso       1.00
      C343          C  0.4928902  0.0106262  0.4394858    0.00000       Uiso       1.00
      C344          C  0.5021602  0.0014649  0.4623768    0.00000       Uiso       1.00
      C345          C  0.4599059  0.9789033  0.4398376    0.00000       Uiso       1.00
      C346          C  0.4691732  0.9697593  0.4627221    0.00000       Uiso       1.00
      C347          C  0.4908310  0.9804425  0.4744644    0.00000       Uiso       1.00
      H225          H  0.5288620  0.9760422  0.4831599    0.00000       Uiso       1.00
      H226          H  0.4434628  0.9698020  0.4315411    0.00000       Uiso       1.00
      H227          H  0.5021449  0.0268486  0.4310005    0.00000       Uiso       1.00
      C348          C  0.5724074  0.9868219  0.5283430    0.00000       Uiso       1.00
      C349          C  0.5603753  0.9836485  0.5077685    0.00000       Uiso       1.00
      C350          C  0.5374891  0.9791726  0.4986243    0.00000       Uiso       1.00
      C351          C  0.5607267  0.9852635  0.5394883    0.00000       Uiso       1.00
      C352          C  0.5378343  0.9808015  0.5303267    0.00000       Uiso       1.00
      C353          C  0.5257462  0.9784042  0.5093064    0.00000       Uiso       1.00
      H228          H  0.5170511  0.0121489  0.5048966    0.00000       Uiso       1.00
      H229          H  0.5692116  0.9867794  0.5557109    0.00000       Uiso       1.00
      H230          H  0.5686750  0.9846025  0.4986713    0.00000       Uiso       1.00
      C354          C  0.4845227  0.8989390  0.5285885    0.00000       Uiso       1.00
      C355          C  0.4876974  0.9109715  0.5403048    0.00000       Uiso       1.00
      C356          C  0.4921731  0.9338570  0.5310377    0.00000       Uiso       1.00
      C357          C  0.4860814  0.9106190  0.5073217    0.00000       Uiso       1.00
      C358          C  0.4905422  0.9335106  0.4980510    0.00000       Uiso       1.00
      C359          C  0.4929396  0.9455990  0.5093800    0.00000       Uiso       1.00
      H231          H  0.4592053  0.9542913  0.4713467    0.00000       Uiso       1.00
      H232          H  0.4845607  0.9021308  0.4980687    0.00000       Uiso       1.00
      H233          H  0.4867421  0.9026748  0.5567470    0.00000       Uiso       1.00
      C360          C  0.4718740  0.9997274  0.5156857    0.00000       Uiso       1.00
      C361          C  0.4607282  0.9784580  0.5141304    0.00000       Uiso       1.00
      C362          C  0.4698870  0.9691874  0.5096682    0.00000       Uiso       1.00
      C363          C  0.4924468  0.0114465  0.5125061    0.00000       Uiso       1.00
      C364          C  0.5015874  0.0021786  0.5080295    0.00000       Uiso       1.00
      C365          C  0.4909058  0.9805183  0.5072665    0.00000       Uiso       1.00
      H234          H  0.4953001  0.9424810  0.5410068    0.00000       Uiso       1.00
      H235          H  0.5015486  0.0278911  0.5134572    0.00000       Uiso       1.00
      H236          H  0.4445088  0.9692023  0.5156557    0.00000       Uiso       1.00
       S57          S  0.5288887  0.0176619  0.4763231    0.00000       Uiso       1.00
      O169          O  0.5353568  0.0055080  0.4993338    0.00000       Uiso       1.00
      O170          O  0.5446705  0.0225572  0.4675173    0.00000       Uiso       1.00
      O171          O  0.5276586  0.0392784  0.4728541    0.00000       Uiso       1.00
      H237          H  0.5418320  0.0478831  0.4802392    0.00000       Uiso       1.00
       S58          S  0.4536942  0.9424562  0.5062590    0.00000       Uiso       1.00
      O172          O  0.4658482  0.9359912  0.5018671    0.00000       Uiso       1.00
      O173          O  0.4488059  0.9266756  0.5259548    0.00000       Uiso       1.00
      O174          O  0.4320736  0.9436797  0.4868858    0.00000       Uiso       1.00
      H238          H  0.4234712  0.9295049  0.4850724    0.00000       Uiso       1.00
       S59          S  0.5238831  0.9773816  0.5465207    0.00000       Uiso       1.00
      O175          O  0.5008720  0.9729912  0.5343648    0.00000       Uiso       1.00
      O176          O  0.5271034  0.9593855  0.5665909    0.00000       Uiso       1.00
      O177          O  0.5333631  0.9985861  0.5517959    0.00000       Uiso       1.00
      H239          H  0.5259776  0.9967821  0.5603930    0.00000       Uiso       1.00
       S60          S  0.4939519  0.9474562  0.4713213    0.00000       Uiso       1.00
      O178          O  0.4983424  0.9704679  0.4648532    0.00000       Uiso       1.00
      O179          O  0.5119442  0.9442344  0.4724617    0.00000       Uiso       1.00
      O180          O  0.4727424  0.9379723  0.4543275    0.00000       Uiso       1.00
      H240          H  0.4745410  0.9453548  0.4401467    0.00000       Uiso       1.00
      C366          C  0.1847484  0.0585433  0.0585390    0.00000       Uiso       1.00
      C367          C  0.1733203  0.0374498  0.0698201    0.00000       Uiso       1.00
      C368          C  0.1505673  0.0277673  0.0602045    0.00000       Uiso       1.00
      C369          C  0.1733213  0.0698252  0.0374465    0.00000       Uiso       1.00
      C370          C  0.1505693  0.0602850  0.0277851    0.00000       Uiso       1.00
      C371          C  0.1387822  0.0390896  0.0390359    0.00000       Uiso       1.00
      H241          H  0.9310980  0.8002317  0.0039187    0.00000       Uiso       1.00
      H242          H  0.1823947  0.0870206  0.0279884    0.00000       Uiso       1.00
      H243          H  0.1823930  0.0279909  0.0870147    0.00000       Uiso       1.00
      C372          C  0.8839369  0.7577314  0.0101436    0.00000       Uiso       1.00
      C373          C  0.9050304  0.7691595  0.0085279    0.00000       Uiso       1.00
      C374          C  0.9146919  0.7919114  0.0049778    0.00000       Uiso       1.00
      C375          C  0.8726550  0.7691585  0.0085270    0.00000       Uiso       1.00
      C376          C  0.8822708  0.7919115  0.0050725    0.00000       Uiso       1.00
      C377          C  0.9034403  0.8036974  0.0031348    0.00000       Uiso       1.00
      H244          H  0.9385518  0.0113765  0.0694191    0.00000       Uiso       1.00
      H245          H  0.8554595  0.7600852  0.0098631    0.00000       Uiso       1.00
      H246          H  0.9144893  0.7600868  0.0098648    0.00000       Uiso       1.00
      C378          C  0.8839433  0.0101554  0.7577341    0.00000       Uiso       1.00
      C379          C  0.8726610  0.0085384  0.7691608    0.00000       Uiso       1.00
      C380          C  0.8822002  0.0049869  0.7919121    0.00000       Uiso       1.00
      C381          C  0.9050363  0.0085394  0.7691617    0.00000       Uiso       1.00
      C382          C  0.9147184  0.0050845  0.7919139    0.00000       Uiso       1.00
      C383          C  0.9033954  0.0031448  0.8036985    0.00000       Uiso       1.00
      H247          H  0.1422498  0.0694305  0.0113796    0.00000       Uiso       1.00
      H248          H  0.9144956  0.0098765  0.7600894    0.00000       Uiso       1.00
      H249          H  0.8554659  0.0098748  0.7600878    0.00000       Uiso       1.00
      C384          C  0.9323251  0.0585361  0.0585319    0.00000       Uiso       1.00
      C385          C  0.9339421  0.0698184  0.0374397    0.00000       Uiso       1.00
      C386          C  0.9373966  0.0602029  0.0277576    0.00000       Uiso       1.00
      C387          C  0.9339411  0.0374430  0.0698133    0.00000       Uiso       1.00
      C388          C  0.9374921  0.0277822  0.0602739    0.00000       Uiso       1.00
      C389          C  0.9393350  0.0390338  0.0390796    0.00000       Uiso       1.00
      H250          H  0.8730542  0.0039260  0.8002319    0.00000       Uiso       1.00
      C390          C  0.9712374  0.9712421  0.9712351    0.00000       Uiso       1.00
      H251          H  0.9326039  0.0279838  0.0870076    0.00000       Uiso       1.00
      H252          H  0.9326056  0.0870135  0.0279813    0.00000       Uiso       1.00
       S61          S  0.1364155  0.0006847  0.0757685    0.00000       Uiso       1.00
      O181          O  0.1136207  0.9940607  0.0629875    0.00000       Uiso       1.00
      O182          O  0.1458718  0.9853195  0.0809389    0.00000       Uiso       1.00
      O183          O  0.1387773  0.0013325  0.0972264    0.00000       Uiso       1.00
      H253          H  0.1312833  0.9869708  0.1054955    0.00000       Uiso       1.00
       S62          S  0.9400295  0.0757671  0.0006758    0.00000       Uiso       1.00
      O184          O  0.9434191  0.0629867  0.9940516    0.00000       Uiso       1.00
      O185          O  0.9203779  0.0809376  0.9853103    0.00000       Uiso       1.00
      O186          O  0.9597743  0.0972265  0.0013229    0.00000       Uiso       1.00
      H254          H  0.9611759  0.1054966  0.9869607    0.00000       Uiso       1.00
       S63          S  0.8667059  0.8060621  0.0024385    0.00000       Uiso       1.00
      O187          O  0.8794867  0.8288584  0.9990472    0.00000       Uiso       1.00
      O188          O  0.8467804  0.8038697  0.9841018    0.00000       Uiso       1.00
      O189          O  0.8611349  0.7958786  0.0235982    0.00000       Uiso       1.00
      H255          H  0.8528712  0.8033697  0.0222105    0.00000       Uiso       1.00
       S64          S  0.9418014  0.0024529  0.8060655    0.00000       Uiso       1.00
      O190          O  0.9484246  0.9990619  0.8288599    0.00000       Uiso       1.00
      O191          O  0.9411997  0.9841177  0.8038728    0.00000       Uiso       1.00
      O192          O  0.9583495  0.0236148  0.7958833    0.00000       Uiso       1.00
      H256          H  0.9727173  0.0222284  0.8033749    0.00000       Uiso       1.00
      C391          C  0.1143923  0.0289861  0.0288282    0.00000       Uiso       1.00
      C392          C  0.1047099  0.0064238  0.0313469    0.00000       Uiso       1.00
      C393          C  0.0818962  0.9970038  0.0218496    0.00000       Uiso       1.00
      C394          C  0.1005097  0.0418200  0.0164890    0.00000       Uiso       1.00
      C395          C  0.0777005  0.0324048  0.0070103    0.00000       Uiso       1.00
      C396          C  0.0679927  0.0098316  0.0095198    0.00000       Uiso       1.00
      H257          H  0.9443864  0.8749152  0.9692022    0.00000       Uiso       1.00
      H258          H  0.1072438  0.0591283  0.0145246    0.00000       Uiso       1.00
      H259          H  0.1148645  0.9960831  0.0403774    0.00000       Uiso       1.00
      C397          C  0.9136474  0.8280880  0.9990553    0.00000       Uiso       1.00
      C398          C  0.9259851  0.8419719  0.9846767    0.00000       Uiso       1.00
      C399          C  0.9354631  0.8647811  0.9807606    0.00000       Uiso       1.00
      C400          C  0.9111301  0.8377681  0.0094188    0.00000       Uiso       1.00
      C401          C  0.9206271  0.8605825  0.0055210    0.00000       Uiso       1.00
      C402          C  0.9329544  0.8744874  0.9911176    0.00000       Uiso       1.00
      H260          H  0.9732688  0.9980891  0.0427410    0.00000       Uiso       1.00
      H261          H  0.9021000  0.8276130  0.0208830    0.00000       Uiso       1.00
      H262          H  0.9279475  0.8352385  0.9760655    0.00000       Uiso       1.00
      C403          C  0.9134985  0.9990653  0.8280873    0.00000       Uiso       1.00
      C404          C  0.9006657  0.9846793  0.8419703    0.00000       Uiso       1.00
      C405          C  0.9100808  0.9807642  0.8647788    0.00000       Uiso       1.00
      C406          C  0.9360580  0.0094358  0.8377678    0.00000       Uiso       1.00
      C407          C  0.9454770  0.0055399  0.8605809    0.00000       Uiso       1.00
      C408          C  0.9326510  0.9911300  0.8744842    0.00000       Uiso       1.00
      H263          H  0.0675664  0.0427544  0.9980820    0.00000       Uiso       1.00
      H264          H  0.9463965  0.0209065  0.8276126    0.00000       Uiso       1.00
      H265          H  0.8833593  0.9760636  0.8352370    0.00000       Uiso       1.00
      C409          C  0.9434140  0.0288262  0.0289773    0.00000       Uiso       1.00
      C410          C  0.9330463  0.0313378  0.0064175    0.00000       Uiso       1.00
      C411          C  0.9369409  0.0218399  0.9969974    0.00000       Uiso       1.00
      C412          C  0.9577966  0.0164928  0.0418101    0.00000       Uiso       1.00
      C413          C  0.9617108  0.0070136  0.0323952    0.00000       Uiso       1.00
      C414          C  0.9513479  0.0095150  0.0098252    0.00000       Uiso       1.00
      H266          H  0.8997355  0.9692028  0.8749148    0.00000       Uiso       1.00
      H267          H  0.9664102  0.0145328  0.0591166    0.00000       Uiso       1.00
      H268          H  0.9215772  0.0403642  0.9960774    0.00000       Uiso       1.00
       S65          S  0.0706494  0.9680260  0.0252595    0.00000       Uiso       1.00
      O193          O  0.0473478  0.9619040  0.0143959    0.00000       Uiso       1.00
      O194          O  0.0803809  0.9638908  0.0159081    0.00000       Uiso       1.00
      O195          O  0.0757319  0.9544280  0.0499468    0.00000       Uiso       1.00
      H269          H  0.0697794  0.9390560  0.0517696    0.00000       Uiso       1.00
       S66          S  0.9226081  0.0252396  0.9680236    0.00000       Uiso       1.00
      O196          O  0.9289224  0.0143764  0.9619002    0.00000       Uiso       1.00
      O197          O  0.8993908  0.0158806  0.9638990    0.00000       Uiso       1.00
      O198          O  0.9286058  0.0499261  0.9544188    0.00000       Uiso       1.00
      H270          H  0.9210029  0.0517436  0.9390488    0.00000       Uiso       1.00
       S67          S  0.9172192  0.8718308  0.0198409    0.00000       Uiso       1.00
      O199          O  0.9280829  0.8951325  0.0135232    0.00000       Uiso       1.00
      O200          O  0.8942941  0.8671107  0.0142621    0.00000       Uiso       1.00
      O201          O  0.9272903  0.8613529  0.0448454    0.00000       Uiso       1.00
      H271          H  0.9254813  0.8673041  0.0524529    0.00000       Uiso       1.00
       S68          S  0.9744506  0.0198757  0.8718244    0.00000       Uiso       1.00
      O202          O  0.9805727  0.0135591  0.8951253    0.00000       Uiso       1.00
      O203          O  0.9870862  0.0143095  0.8671041    0.00000       Uiso       1.00
      O204          O  0.9788919  0.0448785  0.8613437    0.00000       Uiso       1.00
      H272          H  0.9942583  0.0524944  0.8672925    0.00000       Uiso       1.00
      C415          C  0.0435395  0.9997280  0.9994740    0.00000       Uiso       1.00
      C416          C  0.0318593  0.9784583  0.0106207    0.00000       Uiso       1.00
      C417          C  0.0089675  0.9691875  0.0014594    0.00000       Uiso       1.00
      C418          C  0.0315064  0.0114442  0.9788988    0.00000       Uiso       1.00
      C419          C  0.0086211  0.0021761  0.9697548    0.00000       Uiso       1.00
      C420          C  0.9968783  0.9805176  0.9804370    0.00000       Uiso       1.00
      H273          H  0.9881835  0.9424872  0.9760358    0.00000       Uiso       1.00
      H274          H  0.0398032  0.0278875  0.9697982    0.00000       Uiso       1.00
      H275          H  0.0403449  0.9692039  0.0268425    0.00000       Uiso       1.00
      C421          C  0.9429986  0.8989402  0.9868139    0.00000       Uiso       1.00
      C422          C  0.9635743  0.9109733  0.9836409    0.00000       Uiso       1.00
      C423          C  0.9727184  0.9338595  0.9791659    0.00000       Uiso       1.00
      C424          C  0.9318526  0.9106200  0.9852560    0.00000       Uiso       1.00
      C425          C  0.9410142  0.9335123  0.9807947    0.00000       Uiso       1.00
      C426          C  0.9620354  0.9456014  0.9783978    0.00000       Uiso       1.00
      H276          H  0.9664448  0.9542943  0.0121426    0.00000       Uiso       1.00
      H277          H  0.9156292  0.9021344  0.9867715    0.00000       Uiso       1.00
      H278          H  0.9726722  0.9026743  0.9845948    0.00000       Uiso       1.00
      C427          C  0.9427533  0.9868248  0.8989360    0.00000       Uiso       1.00
      C428          C  0.9310362  0.9836493  0.9109681    0.00000       Uiso       1.00
      C429          C  0.9403032  0.9791735  0.9338529    0.00000       Uiso       1.00
      C430          C  0.9640211  0.9852671  0.9106156    0.00000       Uiso       1.00
      C431          C  0.9732918  0.9808064  0.9335065    0.00000       Uiso       1.00
      C432          C  0.9619617  0.9784080  0.9455944    0.00000       Uiso       1.00
      H279          H  0.9999956  0.0121437  0.9542875    0.00000       Uiso       1.00
      H280          H  0.9732748  0.9867885  0.9021279    0.00000       Uiso       1.00
      H281          H  0.9145932  0.9846038  0.9026716    0.00000       Uiso       1.00
      C433          C  0.9556536  0.9994712  0.9997219    0.00000       Uiso       1.00
      C434          C  0.9572088  0.0106177  0.9784534    0.00000       Uiso       1.00
      C435          C  0.9616718  0.0014597  0.9691828    0.00000       Uiso       1.00
      C436          C  0.9588342  0.9788976  0.0114409    0.00000       Uiso       1.00
      C437          C  0.9633117  0.9697577  0.0021731    0.00000       Uiso       1.00
      C438          C  0.9640744  0.9804410  0.9805128    0.00000       Uiso       1.00
      H282          H  0.9303333  0.9760458  0.9424764    0.00000       Uiso       1.00
      H283          H  0.9578828  0.9697955  0.0278849    0.00000       Uiso       1.00
      H284          H  0.9556833  0.0268368  0.9691985    0.00000       Uiso       1.00
       S69          S  0.9950202  0.9424585  0.0176552    0.00000       Uiso       1.00
      O205          O  0.9720087  0.9359896  0.0055014    0.00000       Uiso       1.00
      O206          O  0.0038273  0.9266776  0.0225499    0.00000       Uiso       1.00
      O207          O  0.9984887  0.9436882  0.0392711    0.00000       Uiso       1.00
      H285          H  0.9911033  0.9295145  0.0478751    0.00000       Uiso       1.00
       S70          S  0.9650815  0.0176529  0.9424529    0.00000       Uiso       1.00
      O208          O  0.9694742  0.0054997  0.9359878    0.00000       Uiso       1.00
      O209          O  0.9453849  0.0225404  0.9266728    0.00000       Uiso       1.00
      O210          O  0.9844552  0.0392740  0.9436769    0.00000       Uiso       1.00
      H286          H  0.9862688  0.0478767  0.9295027    0.00000       Uiso       1.00
       S71          S  0.9248189  0.9474624  0.9773752    0.00000       Uiso       1.00
      O211          O  0.9369751  0.9704737  0.9729856    0.00000       Uiso       1.00
      O212          O  0.9047482  0.9442416  0.9593795    0.00000       Uiso       1.00
      O213          O  0.9195431  0.9379817  0.9985789    0.00000       Uiso       1.00
      H287          H  0.9109454  0.9453666  0.9967751    0.00000       Uiso       1.00
       S72          S  0.0000233  0.9773979  0.9474516    0.00000       Uiso       1.00
      O214          O  0.0064912  0.9730072  0.9704626    0.00000       Uiso       1.00
      O215          O  0.9988828  0.9594060  0.9442295    0.00000       Uiso       1.00
      O216          O  0.0170177  0.9986079  0.9379687    0.00000       Uiso       1.00
      H288          H  0.0311991  0.9968100  0.9453509    0.00000       Uiso       1.00
        B1          B  0.8726583  0.7326707  0.5986990    0.00000       Uiso       1.00
        B2          B  0.7386881  0.5987005  0.5986953    0.00000       Uiso       1.00
        B3          B  0.8726543  0.5987006  0.7326615    0.00000       Uiso       1.00
      C439          C  0.8284523  0.6620752  0.6235973    0.00000       Uiso       1.00
      C440          C  0.8477653  0.7000497  0.6053226    0.00000       Uiso       1.00
      H289          H  0.8153040  0.6831470  0.5894506    0.00000       Uiso       1.00
      O217          O  0.8501431  0.7200476  0.5883642    0.00000       Uiso       1.00
      C441          C  0.8290007  0.6816035  0.6047716    0.00000       Uiso       1.00
      C442          C  0.8092823  0.6236014  0.6428999    0.00000       Uiso       1.00
      C443          C  0.7713083  0.6053252  0.6235875    0.00000       Uiso       1.00
      H290          H  0.7882101  0.5894532  0.6560479    0.00000       Uiso       1.00
      O218          O  0.7513105  0.5883656  0.6212098    0.00000       Uiso       1.00
      C444          C  0.7897540  0.6047747  0.6423517    0.00000       Uiso       1.00
      C445          C  0.8477556  0.6429058  0.6620694    0.00000       Uiso       1.00
      C446          C  0.8660307  0.6235934  0.7000423    0.00000       Uiso       1.00
      H291          H  0.8819032  0.6560551  0.6831409    0.00000       Uiso       1.00
      O219          O  0.8829896  0.6212160  0.7200395    0.00000       Uiso       1.00
      C447          C  0.8665817  0.6423581  0.6815971    0.00000       Uiso       1.00
      C448          C  0.8092828  0.6429058  0.6235967    0.00000       Uiso       1.00
      C449          C  0.7713088  0.6235933  0.6053204    0.00000       Uiso       1.00
      O220          O  0.7513115  0.6212159  0.5883614    0.00000       Uiso       1.00
      H292          H  0.7882121  0.6560550  0.5894498    0.00000       Uiso       1.00
      C450          C  0.7897551  0.6423579  0.6047705    0.00000       Uiso       1.00
      C451          C  0.8477561  0.6620752  0.6429010    0.00000       Uiso       1.00
      C452          C  0.8660330  0.7000498  0.6235902    0.00000       Uiso       1.00
      H293          H  0.8819040  0.6831470  0.6560506    0.00000       Uiso       1.00
      O221          O  0.8829924  0.7200476  0.6212135    0.00000       Uiso       1.00
      C453          C  0.8665828  0.6816035  0.6423538    0.00000       Uiso       1.00
      C454          C  0.8284512  0.6236014  0.6620688    0.00000       Uiso       1.00
      C455          C  0.8477625  0.6053252  0.7000418    0.00000       Uiso       1.00
      H294          H  0.8153013  0.5894532  0.6831391    0.00000       Uiso       1.00
      O222          O  0.8501393  0.5883657  0.7200385    0.00000       Uiso       1.00
      C456          C  0.8289984  0.6047747  0.6815961    0.00000       Uiso       1.00
        B4          B  0.4586947  0.5986890  0.7326499    0.00000       Uiso       1.00
        B5          B  0.4586985  0.5986927  0.5986875    0.00000       Uiso       1.00
        B6          B  0.4586986  0.7326591  0.5986875    0.00000       Uiso       1.00
      C457          C  0.4572072  0.6235910  0.6620584    0.00000       Uiso       1.00
      C458          C  0.4575920  0.6053143  0.7000309    0.00000       Uiso       1.00
      H295          H  0.4572795  0.5894432  0.6831291    0.00000       Uiso       1.00
      O223          O  0.4582525  0.5883548  0.7200276    0.00000       Uiso       1.00
      C459          C  0.4573605  0.6047643  0.6815857    0.00000       Uiso       1.00
      C460          C  0.4572083  0.6428959  0.6235869    0.00000       Uiso       1.00
      C461          C  0.4575947  0.6235845  0.6053117    0.00000       Uiso       1.00
      H296          H  0.4572822  0.6560458  0.5894406    0.00000       Uiso       1.00
      O224          O  0.4582563  0.6212078  0.5883532    0.00000       Uiso       1.00
      C462          C  0.4573627  0.6423486  0.6047612    0.00000       Uiso       1.00
      C463          C  0.4572078  0.6620643  0.6428901    0.00000       Uiso       1.00
      C464          C  0.4575942  0.7000383  0.6235788    0.00000       Uiso       1.00
      H297          H  0.4572803  0.6831352  0.6560386    0.00000       Uiso       1.00
      O225          O  0.4582554  0.7200357  0.6212016    0.00000       Uiso       1.00
      C465          C  0.4573616  0.6815920  0.6423424    0.00000       Uiso       1.00
      C466          C  0.4572078  0.6235916  0.6428901    0.00000       Uiso       1.00
      C467          C  0.4575942  0.6053163  0.6235788    0.00000       Uiso       1.00
      O226          O  0.4582554  0.5883574  0.6212016    0.00000       Uiso       1.00
      H298          H  0.4572802  0.5894440  0.6560386    0.00000       Uiso       1.00
      C468          C  0.4573616  0.6047654  0.6423424    0.00000       Uiso       1.00
      C469          C  0.4572073  0.6428949  0.6620584    0.00000       Uiso       1.00
      C470          C  0.4575920  0.6235819  0.7000309    0.00000       Uiso       1.00
      H299          H  0.4572795  0.6560432  0.6831291    0.00000       Uiso       1.00
      O227          O  0.4582525  0.6212041  0.7200276    0.00000       Uiso       1.00
      C471          C  0.4573605  0.6423466  0.6815857    0.00000       Uiso       1.00
      C472          C  0.4572084  0.6620648  0.6235869    0.00000       Uiso       1.00
      C473          C  0.4575948  0.7000388  0.6053117    0.00000       Uiso       1.00
      H300          H  0.4572822  0.6831370  0.5894405    0.00000       Uiso       1.00
      O228          O  0.4582564  0.7200366  0.5883532    0.00000       Uiso       1.00
      C474          C  0.4573627  0.6815931  0.6047612    0.00000       Uiso       1.00
      C475          C  0.3768618  0.2288440  0.5430342    0.00000       Uiso       1.00
      C476          C  0.3581302  0.2099747  0.5441624    0.00000       Uiso       1.00
      C477          C  0.3401517  0.2093743  0.5463556    0.00000       Uiso       1.00
      C478          C  0.3211011  0.1907251  0.5463453    0.00000       Uiso       1.00
      C479          C  0.3191029  0.1726874  0.5428910    0.00000       Uiso       1.00
      C480          C  0.3373050  0.1737853  0.5403807    0.00000       Uiso       1.00
      C481          C  0.3573958  0.1914165  0.5425406    0.00000       Uiso       1.00
      O229          O  0.3798676  0.2486296  0.5435073    0.00000       Uiso       1.00
      H301          H  0.3409527  0.2234583  0.5480993    0.00000       Uiso       1.00
      H302          H  0.3079896  0.1908051  0.5488257    0.00000       Uiso       1.00
      H303          H  0.3354162  0.1615262  0.5353212    0.00000       Uiso       1.00
      C482          C  0.3950185  0.0944513  0.5430927    0.00000       Uiso       1.00
      C483          C  0.3960121  0.1131776  0.5442346    0.00000       Uiso       1.00
      C484          C  0.4155801  0.1311630  0.5464180    0.00000       Uiso       1.00
      C485          C  0.4159659  0.1502137  0.5464017    0.00000       Uiso       1.00
      C486          C  0.3964698  0.1522084  0.5429457    0.00000       Uiso       1.00
      C487          C  0.3768614  0.1339935  0.5404560    0.00000       Uiso       1.00
      C488          C  0.3765684  0.1139027  0.5426245    0.00000       Uiso       1.00
      O230          O  0.4122664  0.0914618  0.5435365    0.00000       Uiso       1.00
      H304          H  0.4306061  0.1303742  0.5481476    0.00000       Uiso       1.00
      H305          H  0.4316362  0.1633299  0.5488720    0.00000       Uiso       1.00
      H306          H  0.3614272  0.1358693  0.5353978    0.00000       Uiso       1.00
      C489          C  0.2425079  0.0763261  0.5430684    0.00000       Uiso       1.00
      C490          C  0.2613862  0.0753283  0.5442278    0.00000       Uiso       1.00
      C491          C  0.2619897  0.0557505  0.5464413    0.00000       Uiso       1.00
      C492          C  0.2806461  0.0553511  0.5464530    0.00000       Uiso       1.00
      C493          C  0.2986872  0.0748438  0.5430012    0.00000       Uiso       1.00
      C494          C  0.2975896  0.0944641  0.5404823    0.00000       Uiso       1.00
      C495          C  0.2799461  0.0947722  0.5426131    0.00000       Uiso       1.00
      O231          O  0.2227231  0.0590712  0.5435371    0.00000       Uiso       1.00
      H307          H  0.2478956  0.0407295  0.5481727    0.00000       Uiso       1.00
      H308          H  0.2805651  0.0396759  0.5489390    0.00000       Uiso       1.00
      H309          H  0.3098541  0.1098931  0.5354311    0.00000       Uiso       1.00
      C496          C  0.2416113  0.0955998  0.5402142    0.00000       Uiso       1.00
      C497          C  0.2599619  0.1148873  0.5396917    0.00000       Uiso       1.00
      C498          C  0.2591286  0.1344259  0.5373020    0.00000       Uiso       1.00
      C499          C  0.2779194  0.1533327  0.5376551    0.00000       Uiso       1.00
      C500          C  0.2983454  0.1527804  0.5416793    0.00000       Uiso       1.00
      C501          C  0.2989160  0.1327631  0.5445428    0.00000       Uiso       1.00
      C502          C  0.2797534  0.1142741  0.5419809    0.00000       Uiso       1.00
      O232          O  0.2211713  0.0932899  0.5385864    0.00000       Uiso       1.00
      H310          H  0.2437904  0.1349949  0.5350729    0.00000       Uiso       1.00
      H311          H  0.2762001  0.1682018  0.5349268    0.00000       Uiso       1.00
      H312          H  0.3145624  0.1310836  0.5500716    0.00000       Uiso       1.00
      C503          C  0.3757516  0.0771175  0.5402756    0.00000       Uiso       1.00
      C504          C  0.3564707  0.0766970  0.5397726    0.00000       Uiso       1.00
      C505          C  0.3369415  0.0586954  0.5374297    0.00000       Uiso       1.00
      C506          C  0.3180425  0.0582256  0.5377963    0.00000       Uiso       1.00
      C507          C  0.3185898  0.0752021  0.5417831    0.00000       Uiso       1.00
      C508          C  0.3385995  0.0929439  0.5446030    0.00000       Uiso       1.00
      C509          C  0.3570792  0.0948272  0.5420310    0.00000       Uiso       1.00
      O233          O  0.3780617  0.0606118  0.5386552    0.00000       Uiso       1.00
      H313          H  0.3363706  0.0450057  0.5352166    0.00000       Uiso       1.00
      H314          H  0.3031814  0.0443479  0.5351006    0.00000       Uiso       1.00
      H315          H  0.3402899  0.1047589  0.5501153    0.00000       Uiso       1.00
      C510          C  0.3941939  0.2297254  0.5402160    0.00000       Uiso       1.00
      C511          C  0.3946045  0.2113716  0.5396990    0.00000       Uiso       1.00
      C512          C  0.4126090  0.2121877  0.5373635    0.00000       Uiso       1.00
      C513          C  0.4130829  0.1933923  0.5377338    0.00000       Uiso       1.00
      C514          C  0.3960997  0.1729752  0.5417086    0.00000       Uiso       1.00
      C515          C  0.3783475  0.1724246  0.5445119    0.00000       Uiso       1.00
      C516          C  0.3764681  0.1915941  0.5419445    0.00000       Uiso       1.00
      O234          O  0.4107139  0.2501532  0.5386201    0.00000       Uiso       1.00
      H316          H  0.4263008  0.2275213  0.5351595    0.00000       Uiso       1.00
      H317          H  0.4269702  0.1951065  0.5350532    0.00000       Uiso       1.00
      H318          H  0.3665236  0.1567860  0.5500126    0.00000       Uiso       1.00
        B7          B  0.4014254  0.2620338  0.5406989    0.00000       Uiso       1.00
        B8          B  0.4013057  0.0699103  0.5407156    0.00000       Uiso       1.00
        B9          B  0.2093015  0.0700355  0.5406895    0.00000       Uiso       1.00
      C517          C  0.3950245  0.5430483  0.2288485    0.00000       Uiso       1.00
      C518          C  0.3960162  0.5441777  0.2099803    0.00000       Uiso       1.00
      C519          C  0.4155887  0.5463721  0.2093811    0.00000       Uiso       1.00
      C520          C  0.4159807  0.5463628  0.1907330    0.00000       Uiso       1.00
      C521          C  0.3964870  0.5429084  0.1726952    0.00000       Uiso       1.00
      C522          C  0.3768713  0.5403969  0.1737919    0.00000       Uiso       1.00
      C523          C  0.3765705  0.5425558  0.1914221    0.00000       Uiso       1.00
      O235          O  0.4122774  0.5435214  0.2486340    0.00000       Uiso       1.00
      H319          H  0.4306154  0.5481158  0.2234651    0.00000       Uiso       1.00
      H320          H  0.4316536  0.5488440  0.1908139    0.00000       Uiso       1.00
      H321          H  0.3614414  0.5353373  0.1615327    0.00000       Uiso       1.00
      C524          C  0.2425327  0.5431057  0.0944549    0.00000       Uiso       1.00
      C525          C  0.2614072  0.5442476  0.1131811    0.00000       Uiso       1.00
      C526          C  0.2620071  0.5464301  0.1311656    0.00000       Uiso       1.00
      C527          C  0.2806557  0.5464138  0.1502162    0.00000       Uiso       1.00
      C528          C  0.2986914  0.5429587  0.1522119    0.00000       Uiso       1.00
      C529          C  0.2975961  0.5404699  0.1339979    0.00000       Uiso       1.00
      C530          C  0.2799670  0.5426386  0.1139073    0.00000       Uiso       1.00
      O236          O  0.2227382  0.5435486  0.0914645    0.00000       Uiso       1.00
      H322          H  0.2479211  0.5481589  0.1303760    0.00000       Uiso       1.00
      H323          H  0.2805712  0.5488834  0.1633316    0.00000       Uiso       1.00
      H324          H  0.3098485  0.5354123  0.1358743    0.00000       Uiso       1.00
      C531          C  0.3769023  0.5430900  0.0763383    0.00000       Uiso       1.00
      C532          C  0.3581848  0.5442485  0.0753396    0.00000       Uiso       1.00
      C533          C  0.3402170  0.5464620  0.0557618    0.00000       Uiso       1.00
      C534          C  0.3211717  0.5464727  0.0553613    0.00000       Uiso       1.00
      C535          C  0.3191704  0.5430196  0.0748529    0.00000       Uiso       1.00
      C536          C  0.3373694  0.5405007  0.0944730    0.00000       Uiso       1.00
      C537          C  0.3574528  0.5426326  0.0947822    0.00000       Uiso       1.00
      O237          O  0.3799022  0.5435599  0.0590846    0.00000       Uiso       1.00
      H325          H  0.3410223  0.5481942  0.0407417    0.00000       Uiso       1.00
      H326          H  0.3080638  0.5489588  0.0396863    0.00000       Uiso       1.00
      H327          H  0.3354817  0.5354486  0.1099011    0.00000       Uiso       1.00
      C538          C  0.3942184  0.5402357  0.0956119    0.00000       Uiso       1.00
      C539          C  0.3946317  0.5397123  0.1148983    0.00000       Uiso       1.00
      C540          C  0.4126138  0.5373225  0.1344368    0.00000       Uiso       1.00
      C541          C  0.4130818  0.5376745  0.1533426    0.00000       Uiso       1.00
      C542          C  0.3961269  0.5416977  0.1527894    0.00000       Uiso       1.00
      C543          C  0.3784027  0.5445615  0.1327721    0.00000       Uiso       1.00
      C544          C  0.3765152  0.5420004  0.1142841    0.00000       Uiso       1.00
      O238          O  0.4107217  0.5386091  0.0933030    0.00000       Uiso       1.00
      H328          H  0.4262926  0.5350940  0.1350066    0.00000       Uiso       1.00
      H329          H  0.4269420  0.5349461  0.1682117    0.00000       Uiso       1.00
      H330          H  0.3666050  0.5500897  0.1310921    0.00000       Uiso       1.00
      C545          C  0.2416497  0.5402896  0.0771221    0.00000       Uiso       1.00
      C546          C  0.2600080  0.5397876  0.0767026    0.00000       Uiso       1.00
      C547          C  0.2591937  0.5374457  0.0587020    0.00000       Uiso       1.00
      C548          C  0.2779907  0.5378134  0.0582333    0.00000       Uiso       1.00
      C549          C  0.2984068  0.5418004  0.0752100    0.00000       Uiso       1.00
      C550          C  0.2989579  0.5446194  0.0929507    0.00000       Uiso       1.00
      C551          C  0.2797883  0.5420462  0.0948329    0.00000       Uiso       1.00
      O239          O  0.2212132  0.5386689  0.0606161    0.00000       Uiso       1.00
      H331          H  0.2438617  0.5352325  0.0450122    0.00000       Uiso       1.00
      H332          H  0.2762790  0.5351183  0.0443563    0.00000       Uiso       1.00
      H333          H  0.3145950  0.5501319  0.1047660    0.00000       Uiso       1.00
      C552          C  0.3757545  0.5402290  0.2297287    0.00000       Uiso       1.00
      C553          C  0.3564730  0.5397119  0.2113749    0.00000       Uiso       1.00
      C554          C  0.3369479  0.5373753  0.2121899    0.00000       Uiso       1.00
      C555          C  0.3180490  0.5377456  0.1933945    0.00000       Uiso       1.00
      C556          C  0.3185911  0.5417216  0.1729786    0.00000       Uiso       1.00
      C557          C  0.3385971  0.5445260  0.1724291    0.00000       Uiso       1.00
      C558          C  0.3570787  0.5419586  0.1915986    0.00000       Uiso       1.00
      O240          O  0.3780653  0.5386321  0.2501555    0.00000       Uiso       1.00
      H334          H  0.3363850  0.5351704  0.2275226    0.00000       Uiso       1.00
      H335          H  0.3031943  0.5350640  0.1951077    0.00000       Uiso       1.00
      H336          H  0.3402842  0.5500277  0.1567916    0.00000       Uiso       1.00
       B10          B  0.4013140  0.5407116  0.2620368    0.00000       Uiso       1.00
       B11          B  0.2093268  0.5407282  0.0699134    0.00000       Uiso       1.00
       B12          B  0.4014411  0.5407130  0.0700494    0.00000       Uiso       1.00
       B13          B  0.7386876  0.0126489  0.5986953    0.00000       Uiso       1.00
       B14          B  0.8726578  0.0126527  0.5986992    0.00000       Uiso       1.00
       B15          B  0.8726540  0.0126490  0.7326616    0.00000       Uiso       1.00
      C559          C  0.8092825  0.0141397  0.6235968    0.00000       Uiso       1.00
      C560          C  0.7713085  0.0137532  0.6053205    0.00000       Uiso       1.00
      H337          H  0.7882116  0.0140672  0.5894499    0.00000       Uiso       1.00
      O241          O  0.7513111  0.0130921  0.5883614    0.00000       Uiso       1.00
      C561          C  0.7897547  0.0139858  0.6047706    0.00000       Uiso       1.00
      C562          C  0.8477557  0.0141402  0.6429011    0.00000       Uiso       1.00
      C563          C  0.8660325  0.0137554  0.6235903    0.00000       Uiso       1.00
      H338          H  0.8819035  0.0140680  0.6560506    0.00000       Uiso       1.00
      O242          O  0.8829920  0.0130949  0.6212136    0.00000       Uiso       1.00
      C564          C  0.8665825  0.0139870  0.6423540    0.00000       Uiso       1.00
      C565          C  0.8284508  0.0141392  0.6620689    0.00000       Uiso       1.00
      C566          C  0.8477621  0.0137528  0.7000418    0.00000       Uiso       1.00
      H339          H  0.8153009  0.0140654  0.6831391    0.00000       Uiso       1.00
      O243          O  0.8501389  0.0130912  0.7200386    0.00000       Uiso       1.00
      C567          C  0.8289980  0.0139848  0.6815962    0.00000       Uiso       1.00
      C568          C  0.8284519  0.0141402  0.6235973    0.00000       Uiso       1.00
      C569          C  0.8477649  0.0137554  0.6053227    0.00000       Uiso       1.00
      O244          O  0.8501426  0.0130949  0.5883642    0.00000       Uiso       1.00
      H340          H  0.8153036  0.0140679  0.5894507    0.00000       Uiso       1.00
      C570          C  0.8290002  0.0139869  0.6047717    0.00000       Uiso       1.00
      C571          C  0.8092819  0.0141392  0.6429000    0.00000       Uiso       1.00
      C572          C  0.7713079  0.0137527  0.6235877    0.00000       Uiso       1.00
      H341          H  0.7882097  0.0140653  0.6560480    0.00000       Uiso       1.00
      O245          O  0.7513101  0.0130912  0.6212099    0.00000       Uiso       1.00
      C573          C  0.7897536  0.0139848  0.6423517    0.00000       Uiso       1.00
      C574          C  0.8477551  0.0141397  0.6620695    0.00000       Uiso       1.00
      C575          C  0.8660303  0.0137533  0.7000424    0.00000       Uiso       1.00
      H342          H  0.8819028  0.0140672  0.6831411    0.00000       Uiso       1.00
      O246          O  0.8829892  0.0130922  0.7200395    0.00000       Uiso       1.00
      C576          C  0.8665813  0.0139859  0.6815972    0.00000       Uiso       1.00
      C577          C  0.9283227  0.0945002  0.2288636    0.00000       Uiso       1.00
      C578          C  0.9271944  0.1132318  0.2099954    0.00000       Uiso       1.00
      C579          C  0.9250005  0.1312097  0.2093955    0.00000       Uiso       1.00
      C580          C  0.9250110  0.1502602  0.1907474    0.00000       Uiso       1.00
      C581          C  0.9284658  0.1522590  0.1727103    0.00000       Uiso       1.00
      C582          C  0.9309769  0.1340576  0.1738076    0.00000       Uiso       1.00
      C583          C  0.9288168  0.1139667  0.1914377    0.00000       Uiso       1.00
      O247          O  0.9278490  0.0914939  0.2486486    0.00000       Uiso       1.00
      H343          H  0.9232564  0.1304082  0.2234790    0.00000       Uiso       1.00
      H344          H  0.9225301  0.1633712  0.1908278    0.00000       Uiso       1.00
      H345          H  0.9360369  0.1359470  0.1615490    0.00000       Uiso       1.00
      C584          C  0.9282686  0.0763477  0.0944743    0.00000       Uiso       1.00
      C585          C  0.9271261  0.0753535  0.1132000    0.00000       Uiso       1.00
      C586          C  0.9249426  0.0557855  0.1311844    0.00000       Uiso       1.00
      C587          C  0.9249583  0.0553992  0.1502345    0.00000       Uiso       1.00
      C588          C  0.9284140  0.0748949  0.1522297    0.00000       Uiso       1.00
      C589          C  0.9309038  0.0945034  0.1340158    0.00000       Uiso       1.00
      C590          C  0.9287357  0.0947968  0.1139256    0.00000       Uiso       1.00
      O248          O  0.9278253  0.0591003  0.0914845    0.00000       Uiso       1.00
      H346          H  0.9232133  0.0407598  0.1303952    0.00000       Uiso       1.00
      H347          H  0.9224879  0.0397289  0.1633498    0.00000       Uiso       1.00
      H348          H  0.9359617  0.1099373  0.1358921    0.00000       Uiso       1.00
      C591          C  0.9282891  0.2288545  0.0763539    0.00000       Uiso       1.00
      C592          C  0.9271302  0.2099767  0.0753557    0.00000       Uiso       1.00
      C593          C  0.9249172  0.2093736  0.0557784    0.00000       Uiso       1.00
      C594          C  0.9249060  0.1907177  0.0553784    0.00000       Uiso       1.00
      C595          C  0.9283580  0.1726768  0.0748701    0.00000       Uiso       1.00
      C596          C  0.9308764  0.1737740  0.0944899    0.00000       Uiso       1.00
      C597          C  0.9287450  0.1914169  0.0947984    0.00000       Uiso       1.00
      O249          O  0.9278203  0.2486392  0.0591001    0.00000       Uiso       1.00
      H349          H  0.9231858  0.2234677  0.0407582    0.00000       Uiso       1.00
      H350          H  0.9224203  0.1907991  0.0397037    0.00000       Uiso       1.00
      H351          H  0.9359277  0.1615097  0.1099181    0.00000       Uiso       1.00
      C598          C  0.9311430  0.2297507  0.0956271    0.00000       Uiso       1.00
      C599          C  0.9316654  0.2114001  0.1149135    0.00000       Uiso       1.00
      C600          C  0.9340547  0.2122330  0.1344516    0.00000       Uiso       1.00
      C601          C  0.9337016  0.1934422  0.1533573    0.00000       Uiso       1.00
      C602          C  0.9296777  0.1730166  0.1528045    0.00000       Uiso       1.00
      C603          C  0.9268145  0.1724464  0.1327877    0.00000       Uiso       1.00
      C604          C  0.9293767  0.1916091  0.1142998    0.00000       Uiso       1.00
      O250          O  0.9327703  0.2501903  0.0933178    0.00000       Uiso       1.00
      H352          H  0.9362835  0.2275709  0.1350210    0.00000       Uiso       1.00
      H353          H  0.9364295  0.1951612  0.1682261    0.00000       Uiso       1.00
      H354          H  0.9212860  0.1568002  0.1311078    0.00000       Uiso       1.00
      C605          C  0.9310858  0.0956147  0.0771416    0.00000       Uiso       1.00
      C606          C  0.9315883  0.1148950  0.0767216    0.00000       Uiso       1.00
      C607          C  0.9339313  0.1344243  0.0587211    0.00000       Uiso       1.00
      C608          C  0.9335641  0.1533228  0.0582519    0.00000       Uiso       1.00
      C609          C  0.9295766  0.1527748  0.0752279    0.00000       Uiso       1.00
      C610          C  0.9267566  0.1327650  0.0929685    0.00000       Uiso       1.00
      C611          C  0.9293292  0.1142859  0.0948513    0.00000       Uiso       1.00
      O251          O  0.9327068  0.0933052  0.0606363    0.00000       Uiso       1.00
      H355          H  0.9361449  0.1349957  0.0450318    0.00000       Uiso       1.00
      H356          H  0.9362599  0.1681840  0.0443750    0.00000       Uiso       1.00
      H357          H  0.9212438  0.1310741  0.1047832    0.00000       Uiso       1.00
      C612          C  0.9311415  0.0771688  0.2297445    0.00000       Uiso       1.00
      C613          C  0.9316591  0.0767587  0.2113912    0.00000       Uiso       1.00
      C614          C  0.9339952  0.0587548  0.2122068    0.00000       Uiso       1.00
      C615          C  0.9336254  0.0582814  0.1934119    0.00000       Uiso       1.00
      C616          C  0.9296504  0.0752645  0.1729959    0.00000       Uiso       1.00
      C617          C  0.9268466  0.0930161  0.1724458    0.00000       Uiso       1.00
      C618          C  0.9294135  0.0948950  0.1916148    0.00000       Uiso       1.00
      O252          O  0.9327374  0.0606488  0.2501712    0.00000       Uiso       1.00
      H358          H  0.9361992  0.0450632  0.2275396    0.00000       Uiso       1.00
      H359          H  0.9363065  0.0443946  0.1951257    0.00000       Uiso       1.00
      H360          H  0.9213457  0.1048397  0.1568080    0.00000       Uiso       1.00
       B16          B  0.9306578  0.0699366  0.2620518    0.00000       Uiso       1.00
       B17          B  0.9306467  0.0700614  0.0699338    0.00000       Uiso       1.00
       B18          B  0.9306674  0.2620603  0.0700644    0.00000       Uiso       1.00
       B19          B  0.8726469  0.7326586  0.0126363    0.00000       Uiso       1.00
       B20          B  0.8726468  0.5986922  0.0126363    0.00000       Uiso       1.00
       B21          B  0.7386767  0.5986884  0.0126326    0.00000       Uiso       1.00
      C619          C  0.8477460  0.6620643  0.0141250    0.00000       Uiso       1.00
      C620          C  0.8660223  0.7000384  0.0137397    0.00000       Uiso       1.00
      H361          H  0.8818942  0.6831365  0.0140532    0.00000       Uiso       1.00
      O253          O  0.8829817  0.7200361  0.0130791    0.00000       Uiso       1.00
      C621          C  0.8665727  0.6815926  0.0139718    0.00000       Uiso       1.00
      C622          C  0.8284416  0.6235911  0.0141245    0.00000       Uiso       1.00
      C623          C  0.8477541  0.6053159  0.0137392    0.00000       Uiso       1.00
      H362          H  0.8152923  0.5894434  0.0140513    0.00000       Uiso       1.00
      O254          O  0.8501313  0.5883570  0.0130782    0.00000       Uiso       1.00
      C624          C  0.8289894  0.6047649  0.0139707    0.00000       Uiso       1.00
      C625          C  0.8092722  0.6428943  0.0141240    0.00000       Uiso       1.00
      C626          C  0.7712976  0.6235813  0.0137370    0.00000       Uiso       1.00
      H363          H  0.7882004  0.6560426  0.0140505    0.00000       Uiso       1.00
      O255          O  0.7512997  0.6212036  0.0130754    0.00000       Uiso       1.00
      C627          C  0.7897438  0.6423460  0.0139696    0.00000       Uiso       1.00
      C628          C  0.8477459  0.6428954  0.0141250    0.00000       Uiso       1.00
      C629          C  0.8660222  0.6235840  0.0137397    0.00000       Uiso       1.00
      O256          O  0.8829817  0.6212073  0.0130791    0.00000       Uiso       1.00
      H364          H  0.8818942  0.6560453  0.0140532    0.00000       Uiso       1.00
      C630          C  0.8665727  0.6423482  0.0139718    0.00000       Uiso       1.00
      C631          C  0.8284416  0.6620638  0.0141245    0.00000       Uiso       1.00
      C632          C  0.8477541  0.7000378  0.0137392    0.00000       Uiso       1.00
      H365          H  0.8152924  0.6831346  0.0140513    0.00000       Uiso       1.00
      O257          O  0.8501314  0.7200352  0.0130782    0.00000       Uiso       1.00
      C633          C  0.8289894  0.6815915  0.0139707    0.00000       Uiso       1.00
      C634          C  0.8092722  0.6235905  0.0141240    0.00000       Uiso       1.00
      C635          C  0.7712976  0.6053137  0.0137370    0.00000       Uiso       1.00
      H366          H  0.7882004  0.5894426  0.0140505    0.00000       Uiso       1.00
      O258          O  0.7512998  0.5883542  0.0130754    0.00000       Uiso       1.00
      C636          C  0.7897438  0.6047637  0.0139696    0.00000       Uiso       1.00
      C637          C  0.3950001  0.2288287  0.0944564    0.00000       Uiso       1.00
      C638          C  0.3959907  0.2099594  0.1131870    0.00000       Uiso       1.00
      C639          C  0.4155627  0.2093597  0.1311650    0.00000       Uiso       1.00
      C640          C  0.4159536  0.1907105  0.1502144    0.00000       Uiso       1.00
      C641          C  0.3964593  0.1726722  0.1522121    0.00000       Uiso       1.00
      C642          C  0.3768441  0.1737694  0.1340106    0.00000       Uiso       1.00
      C643          C  0.3765444  0.1914006  0.1139208    0.00000       Uiso       1.00
      O259          O  0.4122536  0.2486148  0.0914513    0.00000       Uiso       1.00
      H367          H  0.4305898  0.2234441  0.1303644    0.00000       Uiso       1.00
      H368          H  0.4316261  0.1907911  0.1633256    0.00000       Uiso       1.00
      H369          H  0.3614138  0.1615098  0.1358990    0.00000       Uiso       1.00
      C644          C  0.2425049  0.0944317  0.0762964    0.00000       Uiso       1.00
      C645          C  0.2613800  0.1131585  0.0753034    0.00000       Uiso       1.00
      C646          C  0.2619809  0.1311440  0.0557365    0.00000       Uiso       1.00
      C647          C  0.2806301  0.1501952  0.0553512    0.00000       Uiso       1.00
      C648          C  0.2986653  0.1521903  0.0748468    0.00000       Uiso       1.00
      C649          C  0.2975689  0.1339753  0.0944542    0.00000       Uiso       1.00
      C650          C  0.2799392  0.1138841  0.0947465    0.00000       Uiso       1.00
      O260          O  0.2227108  0.0914416  0.0590489    0.00000       Uiso       1.00
      H370          H  0.2478954  0.1303548  0.0407108    0.00000       Uiso       1.00
      H371          H  0.2805464  0.1633114  0.0396818    0.00000       Uiso       1.00
      H372          H  0.3098210  0.1358514  0.1098879    0.00000       Uiso       1.00
      C651          C  0.3768696  0.0763103  0.2288021    0.00000       Uiso       1.00
      C652          C  0.3581525  0.0753121  0.2099244    0.00000       Uiso       1.00
      C653          C  0.3401842  0.0557338  0.2093203    0.00000       Uiso       1.00
      C654          C  0.3211395  0.0553338  0.1906643    0.00000       Uiso       1.00
      C655          C  0.3191392  0.0748264  0.1726243    0.00000       Uiso       1.00
      C656          C  0.3373387  0.0944471  0.1737226    0.00000       Uiso       1.00
      C657          C  0.3574217  0.0947559  0.1913655    0.00000       Uiso       1.00
      O261          O  0.3798684  0.0590556  0.2485858    0.00000       Uiso       1.00
      H373          H  0.3409887  0.0407129  0.2234136    0.00000       Uiso       1.00
      H374          H  0.3080311  0.0396583  0.1907450    0.00000       Uiso       1.00
      H375          H  0.3354519  0.1098759  0.1614588    0.00000       Uiso       1.00
      C658          C  0.3941862  0.0955845  0.2296993    0.00000       Uiso       1.00
      C659          C  0.3946006  0.1148720  0.2113497    0.00000       Uiso       1.00
      C660          C  0.4125832  0.1344110  0.2121835    0.00000       Uiso       1.00
      C661          C  0.4130524  0.1533178  0.1933938    0.00000       Uiso       1.00
      C662          C  0.3960980  0.1527652  0.1729684    0.00000       Uiso       1.00
      C663          C  0.3783732  0.1327474  0.1723973    0.00000       Uiso       1.00
      C664          C  0.3764847  0.1142583  0.1915588    0.00000       Uiso       1.00
      O262          O  0.4106889  0.0932750  0.2501385    0.00000       Uiso       1.00
      H376          H  0.4262616  0.1349804  0.2275213    0.00000       Uiso       1.00
      H377          H  0.4269129  0.1681873  0.1951135    0.00000       Uiso       1.00
      H378          H  0.3665759  0.1310677  0.1567513    0.00000       Uiso       1.00
      C665          C  0.2416208  0.0770978  0.0955623    0.00000       Uiso       1.00
      C666          C  0.2599786  0.0766778  0.1148426    0.00000       Uiso       1.00
      C667          C  0.2591631  0.0586761  0.1343707    0.00000       Uiso       1.00
      C668          C  0.2779596  0.0582069  0.1532692    0.00000       Uiso       1.00
      C669          C  0.2983763  0.0751841  0.1527223    0.00000       Uiso       1.00
      C670          C  0.2989284  0.0929259  0.1327137    0.00000       Uiso       1.00
      C671          C  0.2797594  0.0948086  0.1142346    0.00000       Uiso       1.00
      O263          O  0.2211839  0.0605914  0.0932518    0.00000       Uiso       1.00
      H379          H  0.2438308  0.0449859  0.1349412    0.00000       Uiso       1.00
      H380          H  0.2762471  0.0443290  0.1681294    0.00000       Uiso       1.00
      H381          H  0.3145659  0.1047416  0.1310238    0.00000       Uiso       1.00
      C672          C  0.3757306  0.2297094  0.0771249    0.00000       Uiso       1.00
      C673          C  0.3564486  0.2113551  0.0767137    0.00000       Uiso       1.00
      C674          C  0.3369241  0.2121705  0.0587098    0.00000       Uiso       1.00
      C675          C  0.3180246  0.1933746  0.0582354    0.00000       Uiso       1.00
      C676          C  0.3185657  0.1729576  0.0752175    0.00000       Uiso       1.00
      C677          C  0.3385711  0.1724077  0.0929692    0.00000       Uiso       1.00
      C678          C  0.3570532  0.1915777  0.0948491    0.00000       Uiso       1.00
      O264          O  0.3780425  0.2501372  0.0606059    0.00000       Uiso       1.00
      H382          H  0.3363620  0.2275041  0.0450189    0.00000       Uiso       1.00
      H383          H  0.3031704  0.1950883  0.0443486    0.00000       Uiso       1.00
      H384          H  0.3402574  0.1567694  0.1047923    0.00000       Uiso       1.00
       B22          B  0.4012913  0.2620186  0.0698945    0.00000       Uiso       1.00
       B23          B  0.2092985  0.0698896  0.0700087    0.00000       Uiso       1.00
       B24          B  0.4014072  0.0700204  0.2620074    0.00000       Uiso       1.00
