data_76
_audit_creation_date              0000-00-00
_audit_creation_method            'LanYouShi'
_symmetry_space_group_name_H-M    'P1'
_cell_length_a                    68.1961975
_cell_length_b                    68.1961975
_cell_length_c                    68.1961975
_cell_angle_alpha                 119.9997025
_cell_angle_beta                  119.9997025
_cell_angle_gamma                 60.0000000
loop_
_atom_site_label
_atom_site_type_symbol
_atom_site_fract_x
_atom_site_fract_y
_atom_site_fract_z
_atom_site_U_iso_or_equiv
_atom_site_adp_type
_atom_site_occupancy
        C1          C  0.4575367  0.7330111  0.5952755    0.00000       Uiso       1.00
        C2          C  0.4593008  0.7205399  0.5722560    0.00000       Uiso       1.00
        C3          C  0.4631561  0.6955339  0.5616821    0.00000       Uiso       1.00
        C4          C  0.4593005  0.7205397  0.6075876    0.00000       Uiso       1.00
        C5          C  0.4630018  0.6956144  0.5970390    0.00000       Uiso       1.00
        C6          C  0.4651485  0.6824573  0.5738643    0.00000       Uiso       1.00
        H1          H  0.3929712  0.4564225  0.3132588    0.00000       Uiso       1.00
        H2          H  0.3926834  0.4559185  0.5349815    0.00000       Uiso       1.00
        H3          H  0.4578417  0.7304413  0.6263533    0.00000       Uiso       1.00
        H4          H  0.4578420  0.7304416  0.5619332    0.00000       Uiso       1.00
        C7          C  0.4047293  0.4047296  0.2669939    0.00000       Uiso       1.00
        C8          C  0.3924170  0.4277492  0.2794652    0.00000       Uiso       1.00
        C9          C  0.4029650  0.4384247  0.3043903    0.00000       Uiso       1.00
       C10          C  0.4277489  0.3924173  0.2794652    0.00000       Uiso       1.00
       C11          C  0.4383225  0.4029940  0.3044711    0.00000       Uiso       1.00
       C12          C  0.4261388  0.4262601  0.3175466    0.00000       Uiso       1.00
        H5          H  0.4650144  0.6863773  0.5440822    0.00000       Uiso       1.00
        H6          H  0.6867460  0.4638652  0.5435824    0.00000       Uiso       1.00
        H7          H  0.4380717  0.3736517  0.2695636    0.00000       Uiso       1.00
        H8          H  0.3736514  0.4380720  0.2695636    0.00000       Uiso       1.00
       C13          C  0.4047283  0.4047285  0.5424669    0.00000       Uiso       1.00
       C14          C  0.4277479  0.3924162  0.5407030    0.00000       Uiso       1.00
       C15          C  0.4384223  0.4029630  0.5369986    0.00000       Uiso       1.00
       C16          C  0.3924160  0.4277481  0.5407030    0.00000       Uiso       1.00
       C17          C  0.4029908  0.4383204  0.5368436    0.00000       Uiso       1.00
       C18          C  0.4262568  0.4261358  0.5348484    0.00000       Uiso       1.00
        H9          H  0.6863768  0.4650165  0.6073135    0.00000       Uiso       1.00
       H10          H  0.4638652  0.6867457  0.6070317    0.00000       Uiso       1.00
       H11          H  0.3736503  0.4380709  0.5421617    0.00000       Uiso       1.00
       H12          H  0.4380707  0.3736506  0.5421617    0.00000       Uiso       1.00
       C19          C  0.7330106  0.4575370  0.5952754    0.00000       Uiso       1.00
       C20          C  0.7205393  0.4593009  0.6075876    0.00000       Uiso       1.00
       C21          C  0.6955335  0.4631560  0.5970109    0.00000       Uiso       1.00
       C22          C  0.7205395  0.4593011  0.5722558    0.00000       Uiso       1.00
       C23          C  0.6956144  0.4630015  0.5615801    0.00000       Uiso       1.00
       C24          C  0.6824575  0.4651477  0.5737442    0.00000       Uiso       1.00
       H13          H  0.4564191  0.3929689  0.5361308    0.00000       Uiso       1.00
       H14          H  0.4559221  0.3926904  0.3136264    0.00000       Uiso       1.00
       C25          C  0.4999990  0.5000009  0.4999999    0.00000       Uiso       1.00
       H15          H  0.7304412  0.4578424  0.5619332    0.00000       Uiso       1.00
       H16          H  0.7304409  0.4578421  0.6263533    0.00000       Uiso       1.00
       C26          C  0.4695544  0.6554503  0.5626910    0.00000       Uiso       1.00
       C27          C  0.4604041  0.6442620  0.5375293    0.00000       Uiso       1.00
       C28          C  0.4646114  0.6191626  0.5271196    0.00000       Uiso       1.00
       C29          C  0.4830249  0.6405290  0.5771272    0.00000       Uiso       1.00
       C30          C  0.4871626  0.6154655  0.5669594    0.00000       Uiso       1.00
       C31          C  0.4779784  0.6047137  0.5418732    0.00000       Uiso       1.00
       H17          H  0.4907257  0.6482893  0.5963505    0.00000       Uiso       1.00
       H18          H  0.4496857  0.6551073  0.5259521    0.00000       Uiso       1.00
       C32          C  0.4373094  0.4376881  0.3445519    0.00000       Uiso       1.00
       C33          C  0.4228724  0.4535666  0.3594730    0.00000       Uiso       1.00
       C34          C  0.4330388  0.4643257  0.3845361    0.00000       Uiso       1.00
       C35          C  0.4624690  0.4328758  0.3557391    0.00000       Uiso       1.00
       C36          C  0.4728762  0.4433592  0.3808368    0.00000       Uiso       1.00
       C37          C  0.4581237  0.4591848  0.3952861    0.00000       Uiso       1.00
       H19          H  0.4740502  0.4211810  0.3448982    0.00000       Uiso       1.00
       H20          H  0.4036486  0.4573216  0.3517128    0.00000       Uiso       1.00
       C38          C  0.4376851  0.4373045  0.5304385    0.00000       Uiso       1.00
       C39          C  0.4535727  0.4228647  0.5169674    0.00000       Uiso       1.00
       C40          C  0.4643341  0.4330312  0.5128294    0.00000       Uiso       1.00
       C41          C  0.4328643  0.4624650  0.5395893    0.00000       Uiso       1.00
       C42          C  0.4433468  0.4728718  0.5353809    0.00000       Uiso       1.00
       C43          C  0.4591828  0.4581200  0.5220149    0.00000       Uiso       1.00
       H21          H  0.4211639  0.4740469  0.5503092    0.00000       Uiso       1.00
       H22          H  0.4573307  0.4036383  0.5092676    0.00000       Uiso       1.00
       C44          C  0.6554509  0.4695537  0.5623165    0.00000       Uiso       1.00
       C45          C  0.6442634  0.4603956  0.5671315    0.00000       Uiso       1.00
       C46          C  0.6191640  0.4646052  0.5566512    0.00000       Uiso       1.00
       C47          C  0.6405295  0.4830311  0.5464366    0.00000       Uiso       1.00
       C48          C  0.6154661  0.4871683  0.5356779    0.00000       Uiso       1.00
       C49          C  0.6047150  0.4779790  0.5408229    0.00000       Uiso       1.00
       H23          H  0.6482906  0.4907361  0.5426798    0.00000       Uiso       1.00
       H24          H  0.6551127  0.4496688  0.5788273    0.00000       Uiso       1.00
       C50          C  0.6081622  0.4557153  0.5617560    0.00000       Uiso       1.00
       C51          C  0.5832103  0.4602383  0.5515515    0.00000       Uiso       1.00
       C52          C  0.4978733  0.4382600  0.3918377    0.00000       Uiso       1.00
       C53          C  0.5080975  0.4484670  0.4167884    0.00000       Uiso       1.00
       H25          H  0.5095857  0.4261944  0.3811290    0.00000       Uiso       1.00
       H26          H  0.5274400  0.4439739  0.4246860    0.00000       Uiso       1.00
       H27          H  0.6188743  0.4453613  0.5738224    0.00000       Uiso       1.00
       H28          H  0.5753086  0.4532920  0.5560454    0.00000       Uiso       1.00
       C54          C  0.4823297  0.5794409  0.5315139    0.00000       Uiso       1.00
       C55          C  0.4735669  0.5685942  0.5064080    0.00000       Uiso       1.00
       C56          C  0.4785375  0.5433785  0.4961561    0.00000       Uiso       1.00
       C57          C  0.4957593  0.5650133  0.5462582    0.00000       Uiso       1.00
       C58          C  0.5003265  0.5399139  0.5358440    0.00000       Uiso       1.00
       C59          C  0.4918221  0.5283808  0.5105997    0.00000       Uiso       1.00
       H29          H  0.4525702  0.5072876  0.4709590    0.00000       Uiso       1.00
       H30          H  0.4686528  0.5231848  0.5274892    0.00000       Uiso       1.00
       C60          C  0.4684835  0.4697473  0.4205578    0.00000       Uiso       1.00
       C61          C  0.4537395  0.4854825  0.4349871    0.00000       Uiso       1.00
       C62          C  0.4641535  0.4956023  0.4600875    0.00000       Uiso       1.00
       C63          C  0.4935900  0.4642606  0.4314040    0.00000       Uiso       1.00
       C64          C  0.5038418  0.4742528  0.4566205    0.00000       Uiso       1.00
       C65          C  0.4893982  0.4903995  0.4716198    0.00000       Uiso       1.00
       H31          H  0.4725036  0.5356503  0.4768165    0.00000       Uiso       1.00
       H32          H  0.5290466  0.5110759  0.4926920    0.00000       Uiso       1.00
       C66          C  0.4697433  0.4684832  0.5176677    0.00000       Uiso       1.00
       C67          C  0.4854887  0.4537386  0.5042402    0.00000       Uiso       1.00
       C68          C  0.4956069  0.4641548  0.4996745    0.00000       Uiso       1.00
       C69          C  0.4642445  0.4935914  0.5264313    0.00000       Uiso       1.00
       C70          C  0.4742353  0.5038450  0.5214590    0.00000       Uiso       1.00
       C71          C  0.4903948  0.4894008  0.5081761    0.00000       Uiso       1.00
       H33          H  0.5356454  0.4724952  0.5313279    0.00000       Uiso       1.00
       H34          H  0.5110878  0.5290440  0.5474281    0.00000       Uiso       1.00
       C72          C  0.5794424  0.4823304  0.5302607    0.00000       Uiso       1.00
       C73          C  0.5685948  0.4735633  0.5357536    0.00000       Uiso       1.00
       C74          C  0.5433769  0.4785366  0.5257605    0.00000       Uiso       1.00
       C75          C  0.5650147  0.4957611  0.5145181    0.00000       Uiso       1.00
       C76          C  0.5399144  0.5003260  0.5043960    0.00000       Uiso       1.00
       C77          C  0.5283797  0.4918238  0.5096046    0.00000       Uiso       1.00
       H35          H  0.5073090  0.4525738  0.4889218    0.00000       Uiso       1.00
       H36          H  0.5231824  0.4686829  0.4643481    0.00000       Uiso       1.00
       C78          C  0.4484404  0.5080986  0.5397499    0.00000       Uiso       1.00
       C79          C  0.4382357  0.4978717  0.5442697    0.00000       Uiso       1.00
       C80          C  0.4905589  0.4287487  0.4952621    0.00000       Uiso       1.00
       C81          C  0.4800948  0.4185349  0.4994731    0.00000       Uiso       1.00
       C82          C  0.4602484  0.5832086  0.4918991    0.00000       Uiso       1.00
       C83          C  0.4557271  0.6081606  0.5021222    0.00000       Uiso       1.00
       C84          C  0.5047355  0.5759561  0.5712489    0.00000       Uiso       1.00
       C85          C  0.5005188  0.6008480  0.5814602    0.00000       Uiso       1.00
       C86          C  0.5759578  0.5047403  0.5094502    0.00000       Uiso       1.00
       C87          C  0.6008479  0.5005271  0.5199181    0.00000       Uiso       1.00
       C88          C  0.4287494  0.4905443  0.4240453    0.00000       Uiso       1.00
       C89          C  0.4185388  0.4800795  0.3991549    0.00000       Uiso       1.00
       H37          H  0.4170421  0.5025201  0.4347800    0.00000       Uiso       1.00
       H38          H  0.3992314  0.4842772  0.3913232    0.00000       Uiso       1.00
       H39          H  0.4842996  0.3992264  0.4922002    0.00000       Uiso       1.00
       H40          H  0.5025420  0.4170411  0.4848043    0.00000       Uiso       1.00
       H41          H  0.4439384  0.5274429  0.5466928    0.00000       Uiso       1.00
       H42          H  0.4261617  0.5095831  0.5546166    0.00000       Uiso       1.00
       H43          H  0.5077866  0.6086845  0.6007682    0.00000       Uiso       1.00
       H44          H  0.5151936  0.5652253  0.5829595    0.00000       Uiso       1.00
       H45          H  0.4533063  0.5753102  0.4725573    0.00000       Uiso       1.00
       H46          H  0.4453803  0.6188746  0.4904145    0.00000       Uiso       1.00
       H47          H  0.6086806  0.5077989  0.5157160    0.00000       Uiso       1.00
       H48          H  0.5652245  0.5151964  0.4974652    0.00000       Uiso       1.00
       C90          C  0.9819070  0.7330111  0.5952754    0.00000       Uiso       1.00
       C91          C  0.0049261  0.7205398  0.6075876    0.00000       Uiso       1.00
       C92          C  0.0155001  0.6955338  0.5970109    0.00000       Uiso       1.00
       C93          C  0.9695948  0.7205399  0.5722559    0.00000       Uiso       1.00
       C94          C  0.9801434  0.6956147  0.5615805    0.00000       Uiso       1.00
       C95          C  0.0033179  0.6824573  0.5737445    0.00000       Uiso       1.00
       H49          H  0.2639248  0.4564216  0.5361372    0.00000       Uiso       1.00
       H50          H  0.0422020  0.4559196  0.3136245    0.00000       Uiso       1.00
       H51          H  0.9508291  0.7304417  0.5619332    0.00000       Uiso       1.00
       H52          H  0.0152488  0.7304414  0.6263533    0.00000       Uiso       1.00
       C96          C  0.3101898  0.4047285  0.5424669    0.00000       Uiso       1.00
       C97          C  0.2977185  0.4277481  0.5407030    0.00000       Uiso       1.00
       C98          C  0.2727933  0.4384238  0.5370016    0.00000       Uiso       1.00
       C99          C  0.2977185  0.3924162  0.5407030    0.00000       Uiso       1.00
      C100          C  0.2727125  0.4029931  0.5368475    0.00000       Uiso       1.00
      C101          C  0.2596369  0.4262592  0.5348545    0.00000       Uiso       1.00
       H53          H  0.0331000  0.6863771  0.6073124    0.00000       Uiso       1.00
       H54          H  0.0335999  0.4638650  0.6070317    0.00000       Uiso       1.00
       H55          H  0.3076201  0.3736506  0.5421617    0.00000       Uiso       1.00
       H56          H  0.3076201  0.4380709  0.5421617    0.00000       Uiso       1.00
      C102          C  0.0347168  0.4047299  0.2669942    0.00000       Uiso       1.00
      C103          C  0.0364807  0.3924176  0.2794655    0.00000       Uiso       1.00
      C104          C  0.0401850  0.4029642  0.3043909    0.00000       Uiso       1.00
      C105          C  0.0364807  0.4277494  0.2794655    0.00000       Uiso       1.00
      C106          C  0.0403400  0.4383215  0.3044718    0.00000       Uiso       1.00
      C107          C  0.0423351  0.4261369  0.3175484    0.00000       Uiso       1.00
       H57          H  0.9698691  0.4650168  0.5440832    0.00000       Uiso       1.00
       H58          H  0.9701508  0.6867460  0.5435826    0.00000       Uiso       1.00
       H59          H  0.0350220  0.4380722  0.2695639    0.00000       Uiso       1.00
       H60          H  0.0350220  0.3736519  0.2695639    0.00000       Uiso       1.00
      C108          C  0.9819070  0.4575371  0.5952754    0.00000       Uiso       1.00
      C109          C  0.9695948  0.4593011  0.5722558    0.00000       Uiso       1.00
      C110          C  0.9801717  0.4631562  0.5616819    0.00000       Uiso       1.00
      C111          C  0.0049262  0.4593010  0.6075876    0.00000       Uiso       1.00
      C112          C  0.0156020  0.4630014  0.5970387    0.00000       Uiso       1.00
      C113          C  0.0034380  0.4651477  0.5738641    0.00000       Uiso       1.00
       H61          H  0.0410528  0.3929700  0.3132613    0.00000       Uiso       1.00
       H62          H  0.2635572  0.3926896  0.5349882    0.00000       Uiso       1.00
      C114          C  0.0771829  0.5000010  0.5000031    0.00000       Uiso       1.00
       H63          H  0.0152488  0.4578421  0.6263532    0.00000       Uiso       1.00
       H64          H  0.9508291  0.4578424  0.5619332    0.00000       Uiso       1.00
      C115          C  0.0144913  0.6554503  0.5623168    0.00000       Uiso       1.00
      C116          C  0.0396530  0.6442619  0.5671397    0.00000       Uiso       1.00
      C117          C  0.0500628  0.6191625  0.5566574    0.00000       Uiso       1.00
      C118          C  0.0000551  0.6405293  0.5464301    0.00000       Uiso       1.00
      C119          C  0.0102230  0.6154657  0.5356720    0.00000       Uiso       1.00
      C120          C  0.0353093  0.6047139  0.5408221    0.00000       Uiso       1.00
       H65          H  0.9808321  0.6482896  0.5426678    0.00000       Uiso       1.00
       H66          H  0.0512303  0.6551071  0.5788438    0.00000       Uiso       1.00
      C121          C  0.2326315  0.4376873  0.5304478    0.00000       Uiso       1.00
      C122          C  0.2177104  0.4535660  0.5169684    0.00000       Uiso       1.00
      C123          C  0.1926472  0.4643252  0.5128310    0.00000       Uiso       1.00
      C124          C  0.2214442  0.4328751  0.5396080    0.00000       Uiso       1.00
      C125          C  0.1963464  0.4433586  0.5354010    0.00000       Uiso       1.00
      C126          C  0.1818972  0.4591843  0.5220251    0.00000       Uiso       1.00
       H67          H  0.2322852  0.4211801  0.5503352    0.00000       Uiso       1.00
       H68          H  0.2254707  0.4573210  0.5092599    0.00000       Uiso       1.00
      C127          C  0.0467449  0.4373055  0.3445551    0.00000       Uiso       1.00
      C128          C  0.0602160  0.4228655  0.3594738    0.00000       Uiso       1.00
      C129          C  0.0643540  0.4330319  0.3845397    0.00000       Uiso       1.00
      C130          C  0.0375941  0.4624659  0.3557440    0.00000       Uiso       1.00
      C131          C  0.0418023  0.4728726  0.3808416    0.00000       Uiso       1.00
      C132          C  0.0551683  0.4581207  0.3952916    0.00000       Uiso       1.00
       H69          H  0.0268742  0.4740480  0.3449058    0.00000       Uiso       1.00
       H70          H  0.0679159  0.4036391  0.3517052    0.00000       Uiso       1.00
      C133          C  0.0148658  0.4695538  0.5626913    0.00000       Uiso       1.00
      C134          C  0.0100509  0.4603958  0.5375309    0.00000       Uiso       1.00
      C135          C  0.0205313  0.4646054  0.5271213    0.00000       Uiso       1.00
      C136          C  0.0307458  0.4830311  0.5771270    0.00000       Uiso       1.00
      C137          C  0.0415045  0.4871682  0.5669594    0.00000       Uiso       1.00
      C138          C  0.0363597  0.4779791  0.5418743    0.00000       Uiso       1.00
       H71          H  0.0345024  0.4907359  0.5963497    0.00000       Uiso       1.00
       H72          H  0.9983555  0.4496691  0.5259575    0.00000       Uiso       1.00
      C139          C  0.0154266  0.4557156  0.5021249    0.00000       Uiso       1.00
      C140          C  0.0256312  0.4602386  0.4919005    0.00000       Uiso       1.00
      C141          C  0.1853455  0.4382595  0.5442981    0.00000       Uiso       1.00
      C142          C  0.1603947  0.4484665  0.5397786    0.00000       Uiso       1.00
       H73          H  0.1960542  0.4261937  0.5546535    0.00000       Uiso       1.00
       H74          H  0.1524970  0.4439735  0.5467305    0.00000       Uiso       1.00
       H75          H  0.0033603  0.4453618  0.4904167    0.00000       Uiso       1.00
       H76          H  0.0211374  0.4532924  0.4725588    0.00000       Uiso       1.00
      C143          C  0.0456686  0.5794410  0.5302598    0.00000       Uiso       1.00
      C144          C  0.0707746  0.5685941  0.5357561    0.00000       Uiso       1.00
      C145          C  0.0810267  0.5433784  0.5257629    0.00000       Uiso       1.00
      C146          C  0.0309244  0.5650136  0.5145178    0.00000       Uiso       1.00
      C147          C  0.0413387  0.5399141  0.5043997    0.00000       Uiso       1.00
      C148          C  0.0665830  0.5283808  0.5096063    0.00000       Uiso       1.00
       H77          H  0.1062241  0.5072876  0.4889019    0.00000       Uiso       1.00
       H78          H  0.0496936  0.5231851  0.4643518    0.00000       Uiso       1.00
      C149          C  0.1566253  0.4697469  0.5176757    0.00000       Uiso       1.00
      C150          C  0.1421960  0.4854823  0.5042377    0.00000       Uiso       1.00
      C151          C  0.1170956  0.4956022  0.4996713    0.00000       Uiso       1.00
      C152          C  0.1457791  0.4642603  0.5264494    0.00000       Uiso       1.00
      C153          C  0.1205624  0.4742526  0.5214770    0.00000       Uiso       1.00
      C154          C  0.1055631  0.4903994  0.5081809    0.00000       Uiso       1.00
       H79          H  0.1003663  0.5356502  0.5313403    0.00000       Uiso       1.00
       H80          H  0.0844907  0.5110757  0.5474333    0.00000       Uiso       1.00
      C155          C  0.0595154  0.4684837  0.4205624    0.00000       Uiso       1.00
      C156          C  0.0729429  0.4537390  0.4349905    0.00000       Uiso       1.00
      C157          C  0.0775085  0.4641550  0.4600904    0.00000       Uiso       1.00
      C158          C  0.0507518  0.4935919  0.4314082    0.00000       Uiso       1.00
      C159          C  0.0557240  0.5038454  0.4566247    0.00000       Uiso       1.00
      C160          C  0.0690069  0.4894011  0.4716229    0.00000       Uiso       1.00
       H81          H  0.0458549  0.4724955  0.4768160    0.00000       Uiso       1.00
       H82          H  0.0297546  0.5290443  0.4927071    0.00000       Uiso       1.00
      C161          C  0.0469219  0.4823305  0.5315152    0.00000       Uiso       1.00
      C162          C  0.0414291  0.4735635  0.5064077    0.00000       Uiso       1.00
      C163          C  0.0514223  0.4785368  0.4961563    0.00000       Uiso       1.00
      C164          C  0.0626645  0.4957610  0.5462607    0.00000       Uiso       1.00
      C165          C  0.0727866  0.5003260  0.5358474    0.00000       Uiso       1.00
      C166          C  0.0675782  0.4918239  0.5106021    0.00000       Uiso       1.00
       H83          H  0.0882612  0.4525739  0.4709641    0.00000       Uiso       1.00
       H84          H  0.1128348  0.4686827  0.5275201    0.00000       Uiso       1.00
      C167          C  0.0374331  0.5080992  0.4167928    0.00000       Uiso       1.00
      C168          C  0.0329134  0.4978725  0.3918415    0.00000       Uiso       1.00
      C169          C  0.0819211  0.4287490  0.4240488    0.00000       Uiso       1.00
      C170          C  0.0777102  0.4185355  0.3991602    0.00000       Uiso       1.00
      C171          C  0.0852835  0.5832083  0.5515607    0.00000       Uiso       1.00
      C172          C  0.0750604  0.6081604  0.5617685    0.00000       Uiso       1.00
      C173          C  0.0059335  0.5759565  0.5094460    0.00000       Uiso       1.00
      C174          C  0.9957226  0.6008483  0.5199100    0.00000       Uiso       1.00
      C175          C  0.0677323  0.5047401  0.5712507    0.00000       Uiso       1.00
      C176          C  0.0572642  0.5005269  0.5814596    0.00000       Uiso       1.00
      C177          C  0.1531379  0.4905441  0.4952511    0.00000       Uiso       1.00
      C178          C  0.1780284  0.4800791  0.4994661    0.00000       Uiso       1.00
       H85          H  0.1424032  0.5025200  0.4847851    0.00000       Uiso       1.00
       H86          H  0.1858602  0.4842768  0.4921880    0.00000       Uiso       1.00
       H87          H  0.0849832  0.3992269  0.3913293    0.00000       Uiso       1.00
       H88          H  0.0923789  0.4170414  0.4347821    0.00000       Uiso       1.00
       H89          H  0.0304902  0.5274436  0.4246922    0.00000       Uiso       1.00
       H90          H  0.0225665  0.5095840  0.3811321    0.00000       Uiso       1.00
       H91          H  0.9764144  0.6086850  0.5157065    0.00000       Uiso       1.00
       H92          H  0.9942234  0.5652258  0.4974630    0.00000       Uiso       1.00
       H93          H  0.1046254  0.5753100  0.5560621    0.00000       Uiso       1.00
       H94          H  0.0867681  0.6188743  0.5738432    0.00000       Uiso       1.00
       H95          H  0.0614663  0.5077986  0.6007661    0.00000       Uiso       1.00
       H96          H  0.0797173  0.5151960  0.5829585    0.00000       Uiso       1.00
      C179          C  0.9819046  0.7330086  0.1196429    0.00000       Uiso       1.00
      C180          C  0.9695924  0.7205372  0.1178790    0.00000       Uiso       1.00
      C181          C  0.9801692  0.6955312  0.1140237    0.00000       Uiso       1.00
      C182          C  0.0049239  0.7205372  0.1178790    0.00000       Uiso       1.00
      C183          C  0.0155993  0.6956120  0.1141777    0.00000       Uiso       1.00
      C184          C  0.0034353  0.6824547  0.1120313    0.00000       Uiso       1.00
       H97          H  0.0410426  0.4564185  0.1842094    0.00000       Uiso       1.00
       H98          H  0.2635563  0.4559155  0.1844962    0.00000       Uiso       1.00
       H99          H  0.0152467  0.7304389  0.1193377    0.00000       Uiso       1.00
      H100          H  0.9508267  0.7304389  0.1193377    0.00000       Uiso       1.00
      C185          C  0.0347128  0.4047254  0.1724515    0.00000       Uiso       1.00
      C186          C  0.0364767  0.4277450  0.1847637    0.00000       Uiso       1.00
      C187          C  0.0401783  0.4384206  0.1742157    0.00000       Uiso       1.00
      C188          C  0.0364769  0.3924132  0.1494320    0.00000       Uiso       1.00
      C189          C  0.0403325  0.4029901  0.1388584    0.00000       Uiso       1.00
      C190          C  0.0423254  0.4262562  0.1510419    0.00000       Uiso       1.00
      H101          H  0.9698677  0.6863747  0.1121655    0.00000       Uiso       1.00
      H102          H  0.9701493  0.4638637  0.8904353    0.00000       Uiso       1.00
      H103          H  0.0350182  0.3736476  0.1391093    0.00000       Uiso       1.00
      H104          H  0.0350179  0.4380676  0.2035293    0.00000       Uiso       1.00
      C191          C  0.3101868  0.4047256  0.1724514    0.00000       Uiso       1.00
      C192          C  0.2977156  0.3924134  0.1494319    0.00000       Uiso       1.00
      C193          C  0.2727901  0.4029602  0.1387575    0.00000       Uiso       1.00
      C194          C  0.2977154  0.4277451  0.1847636    0.00000       Uiso       1.00
      C195          C  0.2727090  0.4383174  0.1741888    0.00000       Uiso       1.00
      C196          C  0.2596325  0.4261329  0.1509229    0.00000       Uiso       1.00
      H105          H  0.0330978  0.4650153  0.8908043    0.00000       Uiso       1.00
      H106          H  0.0335974  0.6867433  0.1133144    0.00000       Uiso       1.00
      H107          H  0.3076170  0.4380678  0.2035292    0.00000       Uiso       1.00
      H108          H  0.3076173  0.3736478  0.1391091    0.00000       Uiso       1.00
      C197          C  0.9819059  0.4575360  0.8441706    0.00000       Uiso       1.00
      C198          C  0.0049251  0.4592998  0.8566419    0.00000       Uiso       1.00
      C199          C  0.0154990  0.4631547  0.8816476    0.00000       Uiso       1.00
      C200          C  0.9695936  0.4592998  0.8566419    0.00000       Uiso       1.00
      C201          C  0.9801424  0.4630001  0.8815669    0.00000       Uiso       1.00
      C202          C  0.0033167  0.4651462  0.8947236    0.00000       Uiso       1.00
      H109          H  0.2639197  0.3929662  0.1207608    0.00000       Uiso       1.00
      H110          H  0.0421918  0.3926867  0.1212588    0.00000       Uiso       1.00
      C203          C  0.0771773  0.4999982  0.0771812    0.00000       Uiso       1.00
      H111          H  0.9508279  0.4578411  0.8467402    0.00000       Uiso       1.00
      H112          H  0.0152479  0.4578411  0.8467402    0.00000       Uiso       1.00
      C204          C  0.0148631  0.6554477  0.1076254    0.00000       Uiso       1.00
      C205          C  0.0100402  0.6442592  0.1167758    0.00000       Uiso       1.00
      C206          C  0.0205226  0.6191598  0.1125685    0.00000       Uiso       1.00
      C207          C  0.0307501  0.6405266  0.0941549    0.00000       Uiso       1.00
      C208          C  0.0415081  0.6154630  0.0900173    0.00000       Uiso       1.00
      C209          C  0.0363580  0.6047111  0.0992016    0.00000       Uiso       1.00
      H113          H  0.0345123  0.6482868  0.0864540    0.00000       Uiso       1.00
      H114          H  0.9983364  0.6551044  0.1274941    0.00000       Uiso       1.00
      C210          C  0.0467322  0.4376843  0.1398713    0.00000       Uiso       1.00
      C211          C  0.0602116  0.4535628  0.1543081    0.00000       Uiso       1.00
      C212          C  0.0643491  0.4643221  0.1441417    0.00000       Uiso       1.00
      C213          C  0.0375720  0.4328722  0.1147117    0.00000       Uiso       1.00
      C214          C  0.0417791  0.4433558  0.1043045    0.00000       Uiso       1.00
      C215          C  0.0551550  0.4591814  0.1190568    0.00000       Uiso       1.00
      H115          H  0.0268449  0.4211774  0.1031306    0.00000       Uiso       1.00
      H116          H  0.0679200  0.4573177  0.1735319    0.00000       Uiso       1.00
      C216          C  0.2326257  0.4373017  0.1394947    0.00000       Uiso       1.00
      C217          C  0.2177070  0.4228618  0.1236072    0.00000       Uiso       1.00
      C218          C  0.1926410  0.4330284  0.1128459    0.00000       Uiso       1.00
      C219          C  0.2214368  0.4624621  0.1443155    0.00000       Uiso       1.00
      C220          C  0.1963391  0.4728690  0.1338330    0.00000       Uiso       1.00
      C221          C  0.1818891  0.4581172  0.1179972    0.00000       Uiso       1.00
      H117          H  0.2322749  0.4740441  0.1560158    0.00000       Uiso       1.00
      H118          H  0.2254757  0.4036354  0.1198493    0.00000       Uiso       1.00
      C222          C  0.0144894  0.4695521  0.9217302    0.00000       Uiso       1.00
      C223          C  0.0396499  0.4603941  0.9329176    0.00000       Uiso       1.00
      C224          C  0.0500594  0.4646035  0.9580169    0.00000       Uiso       1.00
      C225          C  0.0000535  0.4830294  0.9366516    0.00000       Uiso       1.00
      C226          C  0.0102211  0.4871664  0.9617150    0.00000       Uiso       1.00
      C227          C  0.0353062  0.4779771  0.9724659    0.00000       Uiso       1.00
      H119          H  0.9808312  0.4907344  0.9288906    0.00000       Uiso       1.00
      H120          H  0.0512233  0.4496673  0.9220683    0.00000       Uiso       1.00
      C228          C  0.0750559  0.4557135  0.9690186    0.00000       Uiso       1.00
      C229          C  0.0852802  0.4602364  0.9939705    0.00000       Uiso       1.00
      C230          C  0.0328821  0.4382568  0.0793074    0.00000       Uiso       1.00
      C231          C  0.0374017  0.4484639  0.0690832    0.00000       Uiso       1.00
      H121          H  0.0225267  0.4261911  0.0675951    0.00000       Uiso       1.00
      H122          H  0.0304498  0.4439709  0.0497407    0.00000       Uiso       1.00
      H123          H  0.0867641  0.4453596  0.9583066    0.00000       Uiso       1.00
      H124          H  0.1046221  0.4532898  0.0018717    0.00000       Uiso       1.00
      C232          C  0.0469203  0.5794383  0.0948503    0.00000       Uiso       1.00
      C233          C  0.0414240  0.5685914  0.1036131    0.00000       Uiso       1.00
      C234          C  0.0514173  0.5433756  0.0986427    0.00000       Uiso       1.00
      C235          C  0.0626625  0.5650108  0.0814208    0.00000       Uiso       1.00
      C236          C  0.0727807  0.5399113  0.0768536    0.00000       Uiso       1.00
      C237          C  0.0675740  0.5283780  0.0853580    0.00000       Uiso       1.00
      H125          H  0.0882783  0.5072845  0.1246100    0.00000       Uiso       1.00
      H126          H  0.1128286  0.5231820  0.1085271    0.00000       Uiso       1.00
      C238          C  0.0595045  0.4697440  0.1086969    0.00000       Uiso       1.00
      C239          C  0.0729425  0.4854792  0.1234409    0.00000       Uiso       1.00
      C240          C  0.0775090  0.4955992  0.1130268    0.00000       Uiso       1.00
      C241          C  0.0507309  0.4642575  0.0835905    0.00000       Uiso       1.00
      C242          C  0.0557033  0.4742499  0.0733387    0.00000       Uiso       1.00
      C243          C  0.0689994  0.4903966  0.0877821    0.00000       Uiso       1.00
      H127          H  0.0458398  0.5356474  0.1046766    0.00000       Uiso       1.00
      H128          H  0.0297470  0.5110732  0.0481338    0.00000       Uiso       1.00
      C244          C  0.1566182  0.4684804  0.1074367    0.00000       Uiso       1.00
      C245          C  0.1421901  0.4537358  0.0916915    0.00000       Uiso       1.00
      C246          C  0.1170901  0.4641519  0.0815733    0.00000       Uiso       1.00
      C247          C  0.1457723  0.4935887  0.1129355    0.00000       Uiso       1.00
      C248          C  0.1205557  0.5038423  0.1029447    0.00000       Uiso       1.00
      C249          C  0.1055576  0.4893981  0.0867854    0.00000       Uiso       1.00
      H129          H  0.1003646  0.4724928  0.0415349    0.00000       Uiso       1.00
      H130          H  0.0844734  0.5290415  0.0660922    0.00000       Uiso       1.00
      C250          C  0.0456653  0.4823284  0.9977385    0.00000       Uiso       1.00
      C251          C  0.0707729  0.4735610  0.0085856    0.00000       Uiso       1.00
      C252          C  0.0810243  0.4785342  0.0338035    0.00000       Uiso       1.00
      C253          C  0.0309198  0.4957587  0.0121658    0.00000       Uiso       1.00
      C254          C  0.0413330  0.5003235  0.0372660    0.00000       Uiso       1.00
      C255          C  0.0665784  0.4918212  0.0488006    0.00000       Uiso       1.00
      H131          H  0.1062164  0.4525710  0.0698714    0.00000       Uiso       1.00
      H132          H  0.0496603  0.4686801  0.0539981    0.00000       Uiso       1.00
      C256          C  0.1603878  0.5080957  0.1287394    0.00000       Uiso       1.00
      C257          C  0.1853391  0.4978689  0.1389441    0.00000       Uiso       1.00
      C258          C  0.1531318  0.4287458  0.0866214    0.00000       Uiso       1.00
      C259          C  0.1780206  0.4185321  0.0970854    0.00000       Uiso       1.00
      C260          C  0.0256193  0.5832055  0.1169317    0.00000       Uiso       1.00
      C261          C  0.0154114  0.6081577  0.1214529    0.00000       Uiso       1.00
      C262          C  0.0677343  0.5759537  0.0724444    0.00000       Uiso       1.00
      C263          C  0.0572703  0.6008456  0.0766611    0.00000       Uiso       1.00
      C264          C  0.0059297  0.5047379  0.0012227    0.00000       Uiso       1.00
      C265          C  0.9957211  0.5005251  0.9763332    0.00000       Uiso       1.00
      C266          C  0.0819289  0.4905409  0.1484309    0.00000       Uiso       1.00
      C267          C  0.0777139  0.4800759  0.1586415    0.00000       Uiso       1.00
      H133          H  0.0923950  0.5025167  0.1601380    0.00000       Uiso       1.00
      H134          H  0.0849919  0.4842735  0.1779489    0.00000       Uiso       1.00
      H135          H  0.1858515  0.3992235  0.0928806    0.00000       Uiso       1.00
      H136          H  0.1423986  0.4170383  0.0746384    0.00000       Uiso       1.00
      H137          H  0.1524883  0.5274401  0.1332414    0.00000       Uiso       1.00
      H138          H  0.1960484  0.5095803  0.1510180    0.00000       Uiso       1.00
      H139          H  0.0614738  0.6086823  0.0693932    0.00000       Uiso       1.00
      H140          H  0.0797175  0.5652230  0.0619864    0.00000       Uiso       1.00
      H141          H  0.0211179  0.5753071  0.1238738    0.00000       Uiso       1.00
      H142          H  0.0033366  0.6188716  0.1317997    0.00000       Uiso       1.00
      H143          H  0.9764146  0.5077968  0.9685005    0.00000       Uiso       1.00
      H144          H  0.9942222  0.5151939  0.0119560    0.00000       Uiso       1.00
      C268          C  0.7330084  0.9819048  0.1196430    0.00000       Uiso       1.00
      C269          C  0.7205373  0.0049242  0.1178790    0.00000       Uiso       1.00
      C270          C  0.6955314  0.0154981  0.1140237    0.00000       Uiso       1.00
      C271          C  0.7205371  0.9695926  0.1178790    0.00000       Uiso       1.00
      C272          C  0.6956119  0.9801412  0.1141778    0.00000       Uiso       1.00
      C273          C  0.6824548  0.0033158  0.1120313    0.00000       Uiso       1.00
      H145          H  0.4564186  0.2639222  0.1842094    0.00000       Uiso       1.00
      H146          H  0.4559156  0.0421984  0.1844963    0.00000       Uiso       1.00
      H147          H  0.7304388  0.9508269  0.1193378    0.00000       Uiso       1.00
      H148          H  0.7304389  0.0152469  0.1193378    0.00000       Uiso       1.00
      C274          C  0.4047255  0.3101873  0.1724516    0.00000       Uiso       1.00
      C275          C  0.4277450  0.2977159  0.1847638    0.00000       Uiso       1.00
      C276          C  0.4384207  0.2727908  0.1742157    0.00000       Uiso       1.00
      C277          C  0.3924133  0.2977161  0.1494320    0.00000       Uiso       1.00
      C278          C  0.4029901  0.2727101  0.1388584    0.00000       Uiso       1.00
      C279          C  0.4262562  0.2596345  0.1510419    0.00000       Uiso       1.00
      H149          H  0.6863747  0.0330981  0.1121656    0.00000       Uiso       1.00
      H150          H  0.4638635  0.0335991  0.8904353    0.00000       Uiso       1.00
      H151          H  0.3736477  0.3076178  0.1391093    0.00000       Uiso       1.00
      H152          H  0.4380678  0.3076175  0.2035294    0.00000       Uiso       1.00
      C280          C  0.4047256  0.0347130  0.1724515    0.00000       Uiso       1.00
      C281          C  0.3924135  0.0364771  0.1494319    0.00000       Uiso       1.00
      C282          C  0.4029603  0.0401816  0.1387576    0.00000       Uiso       1.00
      C283          C  0.4277452  0.0364769  0.1847637    0.00000       Uiso       1.00
      C284          C  0.4383175  0.0403364  0.1741889    0.00000       Uiso       1.00
      C285          C  0.4261330  0.0423317  0.1509230    0.00000       Uiso       1.00
      H153          H  0.4650149  0.9698679  0.8908043    0.00000       Uiso       1.00
      H154          H  0.6867432  0.9701485  0.1133144    0.00000       Uiso       1.00
      H155          H  0.4380679  0.0350181  0.2035293    0.00000       Uiso       1.00
      H156          H  0.3736479  0.0350184  0.1391092    0.00000       Uiso       1.00
      C286          C  0.4575356  0.9819063  0.8441707    0.00000       Uiso       1.00
      C287          C  0.4592994  0.9695939  0.8566419    0.00000       Uiso       1.00
      C288          C  0.4631543  0.9801706  0.8816477    0.00000       Uiso       1.00
      C289          C  0.4592996  0.0049256  0.8566419    0.00000       Uiso       1.00
      C290          C  0.4629999  0.0156012  0.8815669    0.00000       Uiso       1.00
      C291          C  0.4651460  0.0034371  0.8947237    0.00000       Uiso       1.00
      H157          H  0.3929662  0.0410494  0.1207609    0.00000       Uiso       1.00
      H158          H  0.3926868  0.2635548  0.1212589    0.00000       Uiso       1.00
      C292          C  0.4999982  0.0771806  0.0771813    0.00000       Uiso       1.00
      H159          H  0.4578409  0.0152484  0.8467403    0.00000       Uiso       1.00
      H160          H  0.4578407  0.9508283  0.8467403    0.00000       Uiso       1.00
      C293          C  0.6554477  0.0144892  0.1076255    0.00000       Uiso       1.00
      C294          C  0.6442593  0.0396509  0.1167758    0.00000       Uiso       1.00
      C295          C  0.6191598  0.0500607  0.1125685    0.00000       Uiso       1.00
      C296          C  0.6405267  0.0000530  0.0941550    0.00000       Uiso       1.00
      C297          C  0.6154631  0.0102208  0.0900173    0.00000       Uiso       1.00
      C298          C  0.6047112  0.0353071  0.0992016    0.00000       Uiso       1.00
      H161          H  0.6482868  0.9808300  0.0864541    0.00000       Uiso       1.00
      H162          H  0.6551045  0.0512282  0.1274942    0.00000       Uiso       1.00
      C299          C  0.4376844  0.2326291  0.1398713    0.00000       Uiso       1.00
      C300          C  0.4535629  0.2177078  0.1543082    0.00000       Uiso       1.00
      C301          C  0.4643222  0.1926447  0.1441417    0.00000       Uiso       1.00
      C302          C  0.4328723  0.2214419  0.1147117    0.00000       Uiso       1.00
      C303          C  0.4433559  0.1963442  0.1043045    0.00000       Uiso       1.00
      C304          C  0.4591815  0.1818948  0.1190568    0.00000       Uiso       1.00
      H163          H  0.4211774  0.2322830  0.1031307    0.00000       Uiso       1.00
      H164          H  0.4573178  0.2254681  0.1735319    0.00000       Uiso       1.00
      C305          C  0.4373017  0.0467416  0.1394948    0.00000       Uiso       1.00
      C306          C  0.4228619  0.0602129  0.1236073    0.00000       Uiso       1.00
      C307          C  0.4330285  0.0643510  0.1128460    0.00000       Uiso       1.00
      C308          C  0.4624622  0.0375908  0.1443155    0.00000       Uiso       1.00
      C309          C  0.4728691  0.0417993  0.1338331    0.00000       Uiso       1.00
      C310          C  0.4581173  0.0551654  0.1179972    0.00000       Uiso       1.00
      H165          H  0.4740442  0.0268709  0.1560158    0.00000       Uiso       1.00
      H166          H  0.4036355  0.0679127  0.1198494    0.00000       Uiso       1.00
      C311          C  0.4695519  0.0148647  0.9217302    0.00000       Uiso       1.00
      C312          C  0.4603938  0.0100496  0.9329177    0.00000       Uiso       1.00
      C313          C  0.4646032  0.0205299  0.9580170    0.00000       Uiso       1.00
      C314          C  0.4830292  0.0307446  0.9366516    0.00000       Uiso       1.00
      C315          C  0.4871662  0.0415032  0.9617150    0.00000       Uiso       1.00
      C316          C  0.4779769  0.0363582  0.9724659    0.00000       Uiso       1.00
      H167          H  0.4907342  0.0345014  0.9288906    0.00000       Uiso       1.00
      H168          H  0.4496669  0.9983541  0.9220683    0.00000       Uiso       1.00
      C317          C  0.4557133  0.0154250  0.9690187    0.00000       Uiso       1.00
      C318          C  0.4602362  0.0256294  0.9939705    0.00000       Uiso       1.00
      C319          C  0.4382568  0.1853434  0.0793075    0.00000       Uiso       1.00
      C320          C  0.4484639  0.1603926  0.0690832    0.00000       Uiso       1.00
      H169          H  0.4261912  0.1960522  0.0675951    0.00000       Uiso       1.00
      H170          H  0.4439710  0.1524950  0.0497408    0.00000       Uiso       1.00
      H171          H  0.4453595  0.0033587  0.9583067    0.00000       Uiso       1.00
      H172          H  0.4532899  0.0211353  0.0018718    0.00000       Uiso       1.00
      C321          C  0.5794383  0.0456664  0.0948503    0.00000       Uiso       1.00
      C322          C  0.5685914  0.0707724  0.1036132    0.00000       Uiso       1.00
      C323          C  0.5433756  0.0810244  0.0986427    0.00000       Uiso       1.00
      C324          C  0.5650109  0.0309222  0.0814208    0.00000       Uiso       1.00
      C325          C  0.5399114  0.0413365  0.0768536    0.00000       Uiso       1.00
      C326          C  0.5283781  0.0665808  0.0853581    0.00000       Uiso       1.00
      H173          H  0.5072846  0.1062215  0.1246100    0.00000       Uiso       1.00
      H174          H  0.5231821  0.0496911  0.1085272    0.00000       Uiso       1.00
      C327          C  0.4697441  0.1566229  0.1086970    0.00000       Uiso       1.00
      C328          C  0.4854793  0.1421935  0.1234409    0.00000       Uiso       1.00
      C329          C  0.4955992  0.1170931  0.1130268    0.00000       Uiso       1.00
      C330          C  0.4642576  0.1457769  0.0835905    0.00000       Uiso       1.00
      C331          C  0.4742500  0.1205603  0.0733387    0.00000       Uiso       1.00
      C332          C  0.4903967  0.1055608  0.0877821    0.00000       Uiso       1.00
      H175          H  0.5356475  0.1003640  0.1046766    0.00000       Uiso       1.00
      H176          H  0.5110732  0.0844887  0.0481339    0.00000       Uiso       1.00
      C333          C  0.4684805  0.0595126  0.1074368    0.00000       Uiso       1.00
      C334          C  0.4537359  0.0729403  0.0916916    0.00000       Uiso       1.00
      C335          C  0.4641521  0.0775061  0.0815734    0.00000       Uiso       1.00
      C336          C  0.4935887  0.0507490  0.1129355    0.00000       Uiso       1.00
      C337          C  0.5038424  0.0557214  0.1029448    0.00000       Uiso       1.00
      C338          C  0.4893982  0.0690044  0.0867854    0.00000       Uiso       1.00
      H177          H  0.4724928  0.0458527  0.0415350    0.00000       Uiso       1.00
      H178          H  0.5290416  0.0297523  0.0660923    0.00000       Uiso       1.00
      C339          C  0.4823281  0.0469203  0.9977385    0.00000       Uiso       1.00
      C340          C  0.4735610  0.0414271  0.0085857    0.00000       Uiso       1.00
      C341          C  0.4785342  0.0514202  0.0338035    0.00000       Uiso       1.00
      C342          C  0.4957587  0.0626628  0.0121658    0.00000       Uiso       1.00
      C343          C  0.5003236  0.0727847  0.0372660    0.00000       Uiso       1.00
      C344          C  0.4918213  0.0675761  0.0488006    0.00000       Uiso       1.00
      H179          H  0.4525711  0.0882589  0.0698714    0.00000       Uiso       1.00
      H180          H  0.4686802  0.1128327  0.0539981    0.00000       Uiso       1.00
      C345          C  0.5080959  0.0374302  0.1287395    0.00000       Uiso       1.00
      C346          C  0.4978690  0.0329104  0.1389442    0.00000       Uiso       1.00
      C347          C  0.4287459  0.0819184  0.0866214    0.00000       Uiso       1.00
      C348          C  0.4185322  0.0777074  0.0970854    0.00000       Uiso       1.00
      C349          C  0.5832056  0.0852813  0.1169317    0.00000       Uiso       1.00
      C350          C  0.6081578  0.0750582  0.1214529    0.00000       Uiso       1.00
      C351          C  0.5759538  0.0059313  0.0724445    0.00000       Uiso       1.00
      C352          C  0.6008455  0.9957203  0.0766611    0.00000       Uiso       1.00
      C353          C  0.5047380  0.0677307  0.0012228    0.00000       Uiso       1.00
      C354          C  0.5005249  0.0572630  0.9763332    0.00000       Uiso       1.00
      C355          C  0.4905410  0.1531353  0.1484310    0.00000       Uiso       1.00
      C356          C  0.4800760  0.1780258  0.1586416    0.00000       Uiso       1.00
      H181          H  0.5025167  0.1424005  0.1601381    0.00000       Uiso       1.00
      H182          H  0.4842736  0.1858574  0.1779489    0.00000       Uiso       1.00
      H183          H  0.3992236  0.0849803  0.0928807    0.00000       Uiso       1.00
      H184          H  0.4170384  0.0923763  0.0746384    0.00000       Uiso       1.00
      H185          H  0.5274402  0.0304873  0.1332415    0.00000       Uiso       1.00
      H186          H  0.5095804  0.0225634  0.1510180    0.00000       Uiso       1.00
      H187          H  0.6086822  0.9764123  0.0693932    0.00000       Uiso       1.00
      H188          H  0.5652229  0.9942212  0.0619864    0.00000       Uiso       1.00
      H189          H  0.5753072  0.1046232  0.1238739    0.00000       Uiso       1.00
      H190          H  0.6188716  0.0867659  0.1317998    0.00000       Uiso       1.00
      H191          H  0.5077966  0.0614652  0.9685006    0.00000       Uiso       1.00
      H192          H  0.5151939  0.0797157  0.0119560    0.00000       Uiso       1.00
      C357          C  0.7330107  0.9819074  0.5952755    0.00000       Uiso       1.00
      C358          C  0.7205395  0.9695953  0.5722560    0.00000       Uiso       1.00
      C359          C  0.6955336  0.9801720  0.5616821    0.00000       Uiso       1.00
      C360          C  0.7205395  0.0049267  0.6075878    0.00000       Uiso       1.00
      C361          C  0.6956142  0.0156021  0.5970391    0.00000       Uiso       1.00
      C362          C  0.6824570  0.0034382  0.5738643    0.00000       Uiso       1.00
      H193          H  0.4564223  0.0410469  0.3132588    0.00000       Uiso       1.00
      H194          H  0.4559183  0.2635596  0.5349815    0.00000       Uiso       1.00
      H195          H  0.7304410  0.0152494  0.6263533    0.00000       Uiso       1.00
      H196          H  0.7304412  0.9508296  0.5619332    0.00000       Uiso       1.00
      C363          C  0.4047294  0.0347173  0.2669939    0.00000       Uiso       1.00
      C364          C  0.4277490  0.0364812  0.2794652    0.00000       Uiso       1.00
      C365          C  0.4384245  0.0401825  0.3043903    0.00000       Uiso       1.00
      C366          C  0.3924171  0.0364812  0.2794652    0.00000       Uiso       1.00
      C367          C  0.4029938  0.0403366  0.3044711    0.00000       Uiso       1.00
      C368          C  0.4262599  0.0423295  0.3175466    0.00000       Uiso       1.00
      H197          H  0.6863770  0.9698706  0.5440822    0.00000       Uiso       1.00
      H198          H  0.4638648  0.9701513  0.5435824    0.00000       Uiso       1.00
      H199          H  0.3736514  0.0350225  0.2695636    0.00000       Uiso       1.00
      H200          H  0.4380718  0.0350225  0.2695636    0.00000       Uiso       1.00
      C369          C  0.4047283  0.3101900  0.5424669    0.00000       Uiso       1.00
      C370          C  0.3924160  0.2977187  0.5407030    0.00000       Uiso       1.00
      C371          C  0.4029628  0.2727932  0.5369986    0.00000       Uiso       1.00
      C372          C  0.4277479  0.2977187  0.5407030    0.00000       Uiso       1.00
      C373          C  0.4383201  0.2727123  0.5368436    0.00000       Uiso       1.00
      C374          C  0.4261356  0.2596357  0.5348484    0.00000       Uiso       1.00
      H201          H  0.4650163  0.0330995  0.6073135    0.00000       Uiso       1.00
      H202          H  0.6867455  0.0336001  0.6070317    0.00000       Uiso       1.00
      H203          H  0.4380707  0.3076204  0.5421617    0.00000       Uiso       1.00
      H204          H  0.3736503  0.3076204  0.5421617    0.00000       Uiso       1.00
      C375          C  0.4575366  0.9819074  0.5952755    0.00000       Uiso       1.00
      C376          C  0.4593007  0.0049267  0.6075876    0.00000       Uiso       1.00
      C377          C  0.4631558  0.0155008  0.5970109    0.00000       Uiso       1.00
      C378          C  0.4593007  0.9695952  0.5722559    0.00000       Uiso       1.00
      C379          C  0.4630010  0.9801443  0.5615801    0.00000       Uiso       1.00
      C380          C  0.4651474  0.0033186  0.5737442    0.00000       Uiso       1.00
      H205          H  0.3929687  0.2639227  0.5361308    0.00000       Uiso       1.00
      H206          H  0.3926902  0.0421958  0.3136264    0.00000       Uiso       1.00
      C381          C  0.5000007  0.0771803  0.5000000    0.00000       Uiso       1.00
      H207          H  0.4578420  0.9508296  0.5619332    0.00000       Uiso       1.00
      H208          H  0.4578419  0.0152494  0.6263533    0.00000       Uiso       1.00
      C382          C  0.6554500  0.0148660  0.5626910    0.00000       Uiso       1.00
      C383          C  0.6442617  0.0100432  0.5375293    0.00000       Uiso       1.00
      C384          C  0.6191623  0.0205257  0.5271197    0.00000       Uiso       1.00
      C385          C  0.6405289  0.0307528  0.5771272    0.00000       Uiso       1.00
      C386          C  0.6154653  0.0415109  0.5669594    0.00000       Uiso       1.00
      C387          C  0.6047136  0.0363609  0.5418732    0.00000       Uiso       1.00
      H209          H  0.6482890  0.0345150  0.5963505    0.00000       Uiso       1.00
      H210          H  0.6551068  0.9983394  0.5259521    0.00000       Uiso       1.00
      C388          C  0.4376878  0.0467361  0.3445520    0.00000       Uiso       1.00
      C389          C  0.4535663  0.0602156  0.3594730    0.00000       Uiso       1.00
      C390          C  0.4643255  0.0643529  0.3845361    0.00000       Uiso       1.00
      C391          C  0.4328756  0.0375758  0.3557392    0.00000       Uiso       1.00
      C392          C  0.4433590  0.0417827  0.3808368    0.00000       Uiso       1.00
      C393          C  0.4591846  0.0551586  0.3952861    0.00000       Uiso       1.00
      H211          H  0.4211807  0.0268487  0.3448982    0.00000       Uiso       1.00
      H212          H  0.4573213  0.0679241  0.3517128    0.00000       Uiso       1.00
      C394          C  0.4373043  0.2326288  0.5304385    0.00000       Uiso       1.00
      C395          C  0.4228645  0.2177101  0.5169674    0.00000       Uiso       1.00
      C396          C  0.4330310  0.1926441  0.5128294    0.00000       Uiso       1.00
      C397          C  0.4624647  0.2214399  0.5395893    0.00000       Uiso       1.00
      C398          C  0.4728716  0.1963422  0.5353809    0.00000       Uiso       1.00
      C399          C  0.4581198  0.1818922  0.5220150    0.00000       Uiso       1.00
      H213          H  0.4740467  0.2322781  0.5503092    0.00000       Uiso       1.00
      H214          H  0.4036381  0.2254788  0.5092676    0.00000       Uiso       1.00
      C400          C  0.4695535  0.0144915  0.5623165    0.00000       Uiso       1.00
      C401          C  0.4603955  0.0396521  0.5671315    0.00000       Uiso       1.00
      C402          C  0.4646050  0.0500617  0.5566512    0.00000       Uiso       1.00
      C403          C  0.4830309  0.0000558  0.5464366    0.00000       Uiso       1.00
      C404          C  0.4871680  0.0102235  0.5356779    0.00000       Uiso       1.00
      C405          C  0.4779788  0.0353086  0.5408229    0.00000       Uiso       1.00
      H215          H  0.4907357  0.9808334  0.5426799    0.00000       Uiso       1.00
      H216          H  0.4496686  0.0512254  0.5788274    0.00000       Uiso       1.00
      C406          C  0.4557151  0.0750582  0.5617561    0.00000       Uiso       1.00
      C407          C  0.4602381  0.0852826  0.5515516    0.00000       Uiso       1.00
      C408          C  0.4382598  0.0328855  0.3918377    0.00000       Uiso       1.00
      C409          C  0.4484667  0.0374050  0.4167884    0.00000       Uiso       1.00
      H217          H  0.4261942  0.0225302  0.3811290    0.00000       Uiso       1.00
      H218          H  0.4439737  0.0304530  0.4246860    0.00000       Uiso       1.00
      H219          H  0.4453611  0.0867663  0.5738224    0.00000       Uiso       1.00
      H220          H  0.4532918  0.1046245  0.5560454    0.00000       Uiso       1.00
      C410          C  0.5794407  0.0469232  0.5315139    0.00000       Uiso       1.00
      C411          C  0.5685939  0.0414271  0.5064080    0.00000       Uiso       1.00
      C412          C  0.5433782  0.0514204  0.4961561    0.00000       Uiso       1.00
      C413          C  0.5650132  0.0626653  0.5462582    0.00000       Uiso       1.00
      C414          C  0.5399137  0.0727835  0.5358440    0.00000       Uiso       1.00
      C415          C  0.5283805  0.0675770  0.5105997    0.00000       Uiso       1.00
      H221          H  0.5072874  0.0882816  0.4709590    0.00000       Uiso       1.00
      H222          H  0.5231845  0.1128316  0.5274892    0.00000       Uiso       1.00
      C416          C  0.4697471  0.0595080  0.4205579    0.00000       Uiso       1.00
      C417          C  0.4854823  0.0729460  0.4349871    0.00000       Uiso       1.00
      C418          C  0.4956020  0.0775123  0.4600875    0.00000       Uiso       1.00
      C419          C  0.4642604  0.0507342  0.4314040    0.00000       Uiso       1.00
      C420          C  0.4742526  0.0557065  0.4566205    0.00000       Uiso       1.00
      C421          C  0.4903992  0.0690026  0.4716198    0.00000       Uiso       1.00
      H223          H  0.5356501  0.0458430  0.4768165    0.00000       Uiso       1.00
      H224          H  0.5110756  0.0297499  0.4926920    0.00000       Uiso       1.00
      C422          C  0.4684830  0.1566213  0.5176677    0.00000       Uiso       1.00
      C423          C  0.4537384  0.1421932  0.5042403    0.00000       Uiso       1.00
      C424          C  0.4641545  0.1170931  0.4996745    0.00000       Uiso       1.00
      C425          C  0.4935912  0.1457753  0.5264313    0.00000       Uiso       1.00
      C426          C  0.5038448  0.1205587  0.5214590    0.00000       Uiso       1.00
      C427          C  0.4894006  0.1055606  0.5081761    0.00000       Uiso       1.00
      H225          H  0.4724950  0.1003673  0.5313279    0.00000       Uiso       1.00
      H226          H  0.5290438  0.0844761  0.5474281    0.00000       Uiso       1.00
      C428          C  0.4823302  0.0456679  0.5302607    0.00000       Uiso       1.00
      C429          C  0.4735631  0.0707754  0.5357536    0.00000       Uiso       1.00
      C430          C  0.4785364  0.0810270  0.5257605    0.00000       Uiso       1.00
      C431          C  0.4957608  0.0309224  0.5145181    0.00000       Uiso       1.00
      C432          C  0.5003259  0.0413358  0.5043961    0.00000       Uiso       1.00
      C433          C  0.4918236  0.0665812  0.5096046    0.00000       Uiso       1.00
      H227          H  0.4525735  0.1062194  0.4889218    0.00000       Uiso       1.00
      H228          H  0.4686827  0.0496633  0.4643481    0.00000       Uiso       1.00
      C434          C  0.5080984  0.1603908  0.5397499    0.00000       Uiso       1.00
      C435          C  0.4978715  0.1853422  0.5442697    0.00000       Uiso       1.00
      C436          C  0.4287484  0.1531349  0.4952621    0.00000       Uiso       1.00
      C437          C  0.4185347  0.1780237  0.4994731    0.00000       Uiso       1.00
      C438          C  0.5832083  0.0256225  0.4918991    0.00000       Uiso       1.00
      C439          C  0.6081604  0.0154147  0.5021222    0.00000       Uiso       1.00
      C440          C  0.5759559  0.0677370  0.5712490    0.00000       Uiso       1.00
      C441          C  0.6008478  0.0572730  0.5814603    0.00000       Uiso       1.00
      C442          C  0.5047401  0.0059323  0.5094502    0.00000       Uiso       1.00
      C443          C  0.5005268  0.9957235  0.5199182    0.00000       Uiso       1.00
      C444          C  0.4905441  0.0819326  0.4240453    0.00000       Uiso       1.00
      C445          C  0.4800793  0.0777177  0.3991549    0.00000       Uiso       1.00
      H229          H  0.5025199  0.0923986  0.4347800    0.00000       Uiso       1.00
      H230          H  0.4842769  0.0849959  0.3913232    0.00000       Uiso       1.00
      H231          H  0.3992262  0.1858546  0.4922002    0.00000       Uiso       1.00
      H232          H  0.4170409  0.1424017  0.4848043    0.00000       Uiso       1.00
      H233          H  0.5274427  0.1524913  0.5466928    0.00000       Uiso       1.00
      H234          H  0.5095829  0.1960515  0.5546166    0.00000       Uiso       1.00
      H235          H  0.6086843  0.0614763  0.6007682    0.00000       Uiso       1.00
      H236          H  0.5652251  0.0797201  0.5829595    0.00000       Uiso       1.00
      H237          H  0.5753101  0.0211212  0.4725573    0.00000       Uiso       1.00
      H238          H  0.6188744  0.0033399  0.4904145    0.00000       Uiso       1.00
      H239          H  0.5077984  0.9764170  0.5157161    0.00000       Uiso       1.00
      H240          H  0.5151960  0.9942248  0.4974652    0.00000       Uiso       1.00
      C446          C  0.9819046  0.9819048  0.1196429    0.00000       Uiso       1.00
      C447          C  0.0049239  0.9695926  0.1178790    0.00000       Uiso       1.00
      C448          C  0.0154978  0.9801694  0.1140237    0.00000       Uiso       1.00
      C449          C  0.9695925  0.0049242  0.1178790    0.00000       Uiso       1.00
      C450          C  0.9801412  0.0155996  0.1141778    0.00000       Uiso       1.00
      C451          C  0.0033157  0.0034356  0.1120313    0.00000       Uiso       1.00
      H241          H  0.2639221  0.0410429  0.1842094    0.00000       Uiso       1.00
      H242          H  0.0421982  0.2635565  0.1844963    0.00000       Uiso       1.00
      H243          H  0.9508268  0.0152469  0.1193378    0.00000       Uiso       1.00
      H244          H  0.0152466  0.9508269  0.1193378    0.00000       Uiso       1.00
      C452          C  0.3101872  0.0347131  0.1724515    0.00000       Uiso       1.00
      C453          C  0.2977158  0.0364770  0.1847637    0.00000       Uiso       1.00
      C454          C  0.2727906  0.0401785  0.1742157    0.00000       Uiso       1.00
      C455          C  0.2977159  0.0364771  0.1494320    0.00000       Uiso       1.00
      C456          C  0.2727099  0.0403327  0.1388584    0.00000       Uiso       1.00
      C457          C  0.2596343  0.0423256  0.1510419    0.00000       Uiso       1.00
      H245          H  0.0330978  0.9698679  0.1121655    0.00000       Uiso       1.00
      H246          H  0.0335985  0.9701498  0.8904353    0.00000       Uiso       1.00
      H247          H  0.3076176  0.0350184  0.1391093    0.00000       Uiso       1.00
      H248          H  0.3076174  0.0350181  0.2035293    0.00000       Uiso       1.00
      C458          C  0.0347129  0.3101870  0.1724514    0.00000       Uiso       1.00
      C459          C  0.0364770  0.2977158  0.1494319    0.00000       Uiso       1.00
      C460          C  0.0401814  0.2727903  0.1387575    0.00000       Uiso       1.00
      C461          C  0.0364768  0.2977157  0.1847636    0.00000       Uiso       1.00
      C462          C  0.0403363  0.2727093  0.1741888    0.00000       Uiso       1.00
      C463          C  0.0423316  0.2596327  0.1509229    0.00000       Uiso       1.00
      H249          H  0.9698676  0.0330983  0.8908043    0.00000       Uiso       1.00
      H250          H  0.9701485  0.0335977  0.1133144    0.00000       Uiso       1.00
      H251          H  0.0350180  0.3076172  0.2035292    0.00000       Uiso       1.00
      H252          H  0.0350182  0.3076175  0.1391091    0.00000       Uiso       1.00
      C464          C  0.9819057  0.9819064  0.8441706    0.00000       Uiso       1.00
      C465          C  0.9695936  0.0049256  0.8566419    0.00000       Uiso       1.00
      C466          C  0.9801703  0.0154996  0.8816477    0.00000       Uiso       1.00
      C467          C  0.0049250  0.9695940  0.8566419    0.00000       Uiso       1.00
      C468          C  0.0156007  0.9801429  0.8815669    0.00000       Uiso       1.00
      C469          C  0.0034367  0.0033172  0.8947237    0.00000       Uiso       1.00
      H253          H  0.0410493  0.2639199  0.1207609    0.00000       Uiso       1.00
      H254          H  0.2635547  0.0421920  0.1212588    0.00000       Uiso       1.00
      C470          C  0.0771805  0.0771775  0.0771813    0.00000       Uiso       1.00
      H255          H  0.0152478  0.9508284  0.8467402    0.00000       Uiso       1.00
      H256          H  0.9508280  0.0152484  0.8467402    0.00000       Uiso       1.00
      C471          C  0.0144891  0.0148634  0.1076254    0.00000       Uiso       1.00
      C472          C  0.0396508  0.0100404  0.1167758    0.00000       Uiso       1.00
      C473          C  0.0500605  0.0205229  0.1125685    0.00000       Uiso       1.00
      C474          C  0.0000528  0.0307503  0.0941549    0.00000       Uiso       1.00
      C475          C  0.0102207  0.0415084  0.0900173    0.00000       Uiso       1.00
      C476          C  0.0353070  0.0363582  0.0992016    0.00000       Uiso       1.00
      H257          H  0.9808298  0.0345126  0.0864541    0.00000       Uiso       1.00
      H258          H  0.0512279  0.9983365  0.1274942    0.00000       Uiso       1.00
      C477          C  0.2326289  0.0467324  0.1398713    0.00000       Uiso       1.00
      C478          C  0.2177077  0.0602118  0.1543082    0.00000       Uiso       1.00
      C479          C  0.1926446  0.0643493  0.1441417    0.00000       Uiso       1.00
      C480          C  0.2214418  0.0375723  0.1147117    0.00000       Uiso       1.00
      C481          C  0.1963440  0.0417793  0.1043045    0.00000       Uiso       1.00
      C482          C  0.1818947  0.0551552  0.1190568    0.00000       Uiso       1.00
      H259          H  0.2322829  0.0268451  0.1031307    0.00000       Uiso       1.00
      H260          H  0.2254680  0.0679203  0.1735319    0.00000       Uiso       1.00
      C483          C  0.0467415  0.2326259  0.1394947    0.00000       Uiso       1.00
      C484          C  0.0602127  0.2177072  0.1236073    0.00000       Uiso       1.00
      C485          C  0.0643509  0.1926413  0.1128459    0.00000       Uiso       1.00
      C486          C  0.0375907  0.2214370  0.1443155    0.00000       Uiso       1.00
      C487          C  0.0417991  0.1963393  0.1338330    0.00000       Uiso       1.00
      C488          C  0.0551652  0.1818893  0.1179972    0.00000       Uiso       1.00
      H261          H  0.0268707  0.2322752  0.1560158    0.00000       Uiso       1.00
      H262          H  0.0679126  0.2254759  0.1198493    0.00000       Uiso       1.00
      C489          C  0.0148643  0.0144900  0.9217302    0.00000       Uiso       1.00
      C490          C  0.0100492  0.0396504  0.9329176    0.00000       Uiso       1.00
      C491          C  0.0205295  0.0500599  0.9580169    0.00000       Uiso       1.00
      C492          C  0.0307443  0.0000541  0.9366516    0.00000       Uiso       1.00
      C493          C  0.0415028  0.0102216  0.9617150    0.00000       Uiso       1.00
      C494          C  0.0363578  0.0353067  0.9724659    0.00000       Uiso       1.00
      H263          H  0.0345008  0.9808317  0.9288906    0.00000       Uiso       1.00
      H264          H  0.9983537  0.0512239  0.9220683    0.00000       Uiso       1.00
      C495          C  0.0154246  0.0750564  0.9690187    0.00000       Uiso       1.00
      C496          C  0.0256290  0.0852807  0.9939705    0.00000       Uiso       1.00
      C497          C  0.1853433  0.0328823  0.0793075    0.00000       Uiso       1.00
      C498          C  0.1603925  0.0374019  0.0690832    0.00000       Uiso       1.00
      H265          H  0.1960520  0.0225269  0.0675951    0.00000       Uiso       1.00
      H266          H  0.1524949  0.0304500  0.0497407    0.00000       Uiso       1.00
      H267          H  0.0033582  0.0867647  0.9583066    0.00000       Uiso       1.00
      H268          H  0.0211352  0.1046223  0.0018717    0.00000       Uiso       1.00
      C499          C  0.0456663  0.0469205  0.0948503    0.00000       Uiso       1.00
      C500          C  0.0707723  0.0414242  0.1036131    0.00000       Uiso       1.00
      C501          C  0.0810243  0.0514175  0.0986427    0.00000       Uiso       1.00
      C502          C  0.0309221  0.0626628  0.0814208    0.00000       Uiso       1.00
      C503          C  0.0413364  0.0727809  0.0768536    0.00000       Uiso       1.00
      C504          C  0.0665806  0.0675742  0.0853580    0.00000       Uiso       1.00
      H269          H  0.1062214  0.0882786  0.1246100    0.00000       Uiso       1.00
      H270          H  0.0496909  0.1128289  0.1085271    0.00000       Uiso       1.00
      C505          C  0.1566228  0.0595047  0.1086969    0.00000       Uiso       1.00
      C506          C  0.1421934  0.0729427  0.1234409    0.00000       Uiso       1.00
      C507          C  0.1170930  0.0775092  0.1130268    0.00000       Uiso       1.00
      C508          C  0.1457768  0.0507311  0.0835905    0.00000       Uiso       1.00
      C509          C  0.1205602  0.0557036  0.0733387    0.00000       Uiso       1.00
      C510          C  0.1055607  0.0689997  0.0877821    0.00000       Uiso       1.00
      H271          H  0.1003639  0.0458400  0.1046766    0.00000       Uiso       1.00
      H272          H  0.0844886  0.0297472  0.0481338    0.00000       Uiso       1.00
      C511          C  0.0595125  0.1566185  0.1074367    0.00000       Uiso       1.00
      C512          C  0.0729401  0.1421904  0.0916915    0.00000       Uiso       1.00
      C513          C  0.0775059  0.1170904  0.0815734    0.00000       Uiso       1.00
      C514          C  0.0507489  0.1457725  0.1129355    0.00000       Uiso       1.00
      C515          C  0.0557212  0.1205559  0.1029448    0.00000       Uiso       1.00
      C516          C  0.0690043  0.1055579  0.0867854    0.00000       Uiso       1.00
      H273          H  0.0458526  0.1003649  0.0415350    0.00000       Uiso       1.00
      H274          H  0.0297522  0.0844736  0.0660923    0.00000       Uiso       1.00
      C517          C  0.0469199  0.0456658  0.9977385    0.00000       Uiso       1.00
      C518          C  0.0414270  0.0707732  0.0085856    0.00000       Uiso       1.00
      C519          C  0.0514201  0.0810246  0.0338035    0.00000       Uiso       1.00
      C520          C  0.0626626  0.0309200  0.0121658    0.00000       Uiso       1.00
      C521          C  0.0727846  0.0413333  0.0372660    0.00000       Uiso       1.00
      C522          C  0.0675759  0.0665786  0.0488006    0.00000       Uiso       1.00
      H275          H  0.0882587  0.1062166  0.0698714    0.00000       Uiso       1.00
      H276          H  0.1128326  0.0496605  0.0539981    0.00000       Uiso       1.00
      C523          C  0.0374301  0.1603880  0.1287394    0.00000       Uiso       1.00
      C524          C  0.0329103  0.1853393  0.1389441    0.00000       Uiso       1.00
      C525          C  0.0819183  0.1531321  0.0866214    0.00000       Uiso       1.00
      C526          C  0.0777073  0.1780208  0.0970854    0.00000       Uiso       1.00
      C527          C  0.0852812  0.0256195  0.1169317    0.00000       Uiso       1.00
      C528          C  0.0750581  0.0154117  0.1214529    0.00000       Uiso       1.00
      C529          C  0.0059312  0.0677345  0.0724445    0.00000       Uiso       1.00
      C530          C  0.9957203  0.0572706  0.0766611    0.00000       Uiso       1.00
      C531          C  0.0677306  0.0059299  0.0012227    0.00000       Uiso       1.00
      C532          C  0.0572624  0.9957215  0.9763332    0.00000       Uiso       1.00
      C533          C  0.1531352  0.0819292  0.1484309    0.00000       Uiso       1.00
      C534          C  0.1780257  0.0777142  0.1586415    0.00000       Uiso       1.00
      H277          H  0.1424003  0.0923952  0.1601381    0.00000       Uiso       1.00
      H278          H  0.1858573  0.0849922  0.1779489    0.00000       Uiso       1.00
      H279          H  0.0849802  0.1858517  0.0928807    0.00000       Uiso       1.00
      H280          H  0.0923762  0.1423989  0.0746384    0.00000       Uiso       1.00
      H281          H  0.0304872  0.1524885  0.1332414    0.00000       Uiso       1.00
      H282          H  0.0225633  0.1960487  0.1510180    0.00000       Uiso       1.00
      H283          H  0.9764122  0.0614741  0.0693932    0.00000       Uiso       1.00
      H284          H  0.9942211  0.0797177  0.0619864    0.00000       Uiso       1.00
      H285          H  0.1046231  0.0211181  0.1238738    0.00000       Uiso       1.00
      H286          H  0.0867658  0.0033369  0.1317998    0.00000       Uiso       1.00
      H287          H  0.0614646  0.9764150  0.9685006    0.00000       Uiso       1.00
      H288          H  0.0797154  0.9942223  0.0119560    0.00000       Uiso       1.00
      C535          C  0.7960405  0.4531436  0.6146880    0.00000       Uiso       1.00
      C536          C  0.8166329  0.4519117  0.6136063    0.00000       Uiso       1.00
      C537          C  0.8172876  0.4495176  0.5922466    0.00000       Uiso       1.00
      C538          C  0.8376399  0.4495283  0.5918193    0.00000       Uiso       1.00
      C539          C  0.8573252  0.4532981  0.6130937    0.00000       Uiso       1.00
      C540          C  0.8561276  0.4560383  0.6345006    0.00000       Uiso       1.00
      C541          C  0.8368864  0.4536816  0.6348282    0.00000       Uiso       1.00
        O1          O  0.7744476  0.4526273  0.5958589    0.00000       Uiso       1.00
      H289          H  0.8019171  0.4476146  0.5758472    0.00000       Uiso       1.00
      H290          H  0.8375521  0.4468209  0.5747152    0.00000       Uiso       1.00
      H291          H  0.8695065  0.4615600  0.6513398    0.00000       Uiso       1.00
      C542          C  0.9427099  0.4530796  0.7811088    0.00000       Uiso       1.00
      C543          C  0.9222731  0.4518335  0.7605102    0.00000       Uiso       1.00
      C544          C  0.9026451  0.4494511  0.7598550    0.00000       Uiso       1.00
      C545          C  0.8818542  0.4494690  0.7395029    0.00000       Uiso       1.00
      C546          C  0.8796770  0.4532404  0.7198203    0.00000       Uiso       1.00
      C547          C  0.8995553  0.4559570  0.7210160    0.00000       Uiso       1.00
      C548          C  0.9214813  0.4535901  0.7402556    0.00000       Uiso       1.00
        O2          O  0.9459729  0.4525957  0.8027110    0.00000       Uiso       1.00
      H292          H  0.9035063  0.4475638  0.7752272    0.00000       Uiso       1.00
      H293          H  0.8675404  0.4467734  0.7395947    0.00000       Uiso       1.00
      H294          H  0.8975078  0.4614769  0.7076448    0.00000       Uiso       1.00
      C549          C  0.9624868  0.4531020  0.6344697    0.00000       Uiso       1.00
      C550          C  0.9635762  0.4518372  0.6548965    0.00000       Uiso       1.00
      C551          C  0.9849423  0.4494213  0.6745056    0.00000       Uiso       1.00
      C552          C  0.9853787  0.4494091  0.6952901    0.00000       Uiso       1.00
      C553          C  0.9641059  0.4531769  0.6974736    0.00000       Uiso       1.00
      C554          C  0.9426935  0.4559260  0.6776121    0.00000       Uiso       1.00
      C555          C  0.9423567  0.4536000  0.6556947    0.00000       Uiso       1.00
        O3          O  0.9813173  0.4525899  0.6311966    0.00000       Uiso       1.00
      H295          H  0.0013347  0.4475314  0.6736273    0.00000       Uiso       1.00
      H296          H  0.0024853  0.4466958  0.7095954    0.00000       Uiso       1.00
      H297          H  0.9258555  0.4614391  0.6796717    0.00000       Uiso       1.00
      C556          C  0.9414526  0.4562172  0.6155719    0.00000       Uiso       1.00
      C557          C  0.9204037  0.4567879  0.6151202    0.00000       Uiso       1.00
      C558          C  0.8990804  0.4593961  0.5954955    0.00000       Uiso       1.00
      C559          C  0.8784469  0.4590113  0.5949841    0.00000       Uiso       1.00
      C560          C  0.8790502  0.4546199  0.6134873    0.00000       Uiso       1.00
      C561          C  0.9008960  0.4514945  0.6328307    0.00000       Uiso       1.00
      C562          C  0.9210734  0.4542901  0.6348910    0.00000       Uiso       1.00
        O4          O  0.9439730  0.4579931  0.5975616    0.00000       Uiso       1.00
      H298          H  0.8984590  0.4618285  0.5805675    0.00000       Uiso       1.00
      H299          H  0.8622196  0.4619890  0.5798579    0.00000       Uiso       1.00
      H300          H  0.9027291  0.4454611  0.6457057    0.00000       Uiso       1.00
      C563          C  0.9616266  0.4561535  0.7820731    0.00000       Uiso       1.00
      C564          C  0.9620850  0.4567020  0.7620382    0.00000       Uiso       1.00
      C565          C  0.9817306  0.4592584  0.7629276    0.00000       Uiso       1.00
      C566          C  0.9822428  0.4588577  0.7424141    0.00000       Uiso       1.00
      C567          C  0.9637155  0.4545068  0.7201331    0.00000       Uiso       1.00
      C568          C  0.9443535  0.4514297  0.7195312    0.00000       Uiso       1.00
      C569          C  0.9422987  0.4542372  0.7404512    0.00000       Uiso       1.00
        O5          O  0.9796402  0.4579219  0.8043761    0.00000       Uiso       1.00
      H301          H  0.9966708  0.4616736  0.7796600    0.00000       Uiso       1.00
      H302          H  0.9973879  0.4617993  0.7442825    0.00000       Uiso       1.00
      H303          H  0.9314591  0.4454139  0.7024658    0.00000       Uiso       1.00
      C570          C  0.7950791  0.4562198  0.6357176    0.00000       Uiso       1.00
      C571          C  0.8151095  0.4567840  0.6567603    0.00000       Uiso       1.00
      C572          C  0.8142194  0.4593333  0.6780683    0.00000       Uiso       1.00
      C573          C  0.8347316  0.4589291  0.6986936    0.00000       Uiso       1.00
      C574          C  0.8570132  0.4545905  0.6981027    0.00000       Uiso       1.00
      C575          C  0.8576136  0.4515307  0.6762698    0.00000       Uiso       1.00
      C576          C  0.8366930  0.4543327  0.6561000    0.00000       Uiso       1.00
        O6          O  0.7727858  0.4579620  0.6331950    0.00000       Uiso       1.00
      H304          H  0.7974855  0.4617391  0.6786821    0.00000       Uiso       1.00
      H305          H  0.8328613  0.4618551  0.7149047    0.00000       Uiso       1.00
      H306          H  0.8746802  0.4455269  0.6744291    0.00000       Uiso       1.00
        B1          B  0.7598197  0.4556930  0.6078231    0.00000       Uiso       1.00
        B2          B  0.9694929  0.4556739  0.8173476    0.00000       Uiso       1.00
        B3          B  0.9693512  0.4556974  0.6076904    0.00000       Uiso       1.00
      C577          C  0.4531431  0.7960408  0.6344992    0.00000       Uiso       1.00
      C578          C  0.4519112  0.8166331  0.6549413    0.00000       Uiso       1.00
      C579          C  0.4495169  0.8172876  0.6745614    0.00000       Uiso       1.00
      C580          C  0.4495274  0.8376398  0.6953516    0.00000       Uiso       1.00
      C581          C  0.4532973  0.8573253  0.6975324    0.00000       Uiso       1.00
      C582          C  0.4560378  0.8561278  0.6776683    0.00000       Uiso       1.00
      C583          C  0.4536811  0.8368867  0.6557428    0.00000       Uiso       1.00
        O7          O  0.4526268  0.7744478  0.6312189    0.00000       Uiso       1.00
      H307          H  0.4476138  0.8019171  0.6736873    0.00000       Uiso       1.00
      H308          H  0.4468199  0.8375519  0.7096604    0.00000       Uiso       1.00
      H309          H  0.4615594  0.8695068  0.6797297    0.00000       Uiso       1.00
      C584          C  0.4530799  0.9427111  0.6146845    0.00000       Uiso       1.00
      C585          C  0.4518337  0.9222741  0.6136001    0.00000       Uiso       1.00
      C586          C  0.4494515  0.9026464  0.5922452    0.00000       Uiso       1.00
      C587          C  0.4494693  0.8818554  0.5918242    0.00000       Uiso       1.00
      C588          C  0.4532405  0.8796778  0.6131006    0.00000       Uiso       1.00
      C589          C  0.4559570  0.8995561  0.6344997    0.00000       Uiso       1.00
      C590          C  0.4535902  0.9214821  0.6348194    0.00000       Uiso       1.00
        O8          O  0.4525962  0.9459742  0.5958616    0.00000       Uiso       1.00
      H310          H  0.4475643  0.9035077  0.5758470    0.00000       Uiso       1.00
      H311          H  0.4467737  0.8675416  0.5747229    0.00000       Uiso       1.00
      H312          H  0.4614768  0.8975085  0.6513434    0.00000       Uiso       1.00
      C591          C  0.4531010  0.9624866  0.7811216    0.00000       Uiso       1.00
      C592          C  0.4518363  0.9635761  0.7605195    0.00000       Uiso       1.00
      C593          C  0.4494206  0.9849424  0.7598608    0.00000       Uiso       1.00
      C594          C  0.4494084  0.9853789  0.7395006    0.00000       Uiso       1.00
      C595          C  0.4531764  0.9641063  0.7198123    0.00000       Uiso       1.00
      C596          C  0.4559253  0.9426937  0.7210103    0.00000       Uiso       1.00
      C597          C  0.4535993  0.9423567  0.7402648    0.00000       Uiso       1.00
        O9          O  0.4525887  0.9813170  0.8027130    0.00000       Uiso       1.00
      H313          H  0.4475307  0.0013347  0.7752418    0.00000       Uiso       1.00
      H314          H  0.4466955  0.0024857  0.7395891    0.00000       Uiso       1.00
      H315          H  0.4614386  0.9258558  0.7076260    0.00000       Uiso       1.00
      C598          C  0.4562160  0.9414523  0.7821003    0.00000       Uiso       1.00
      C599          C  0.4567868  0.9204034  0.7620739    0.00000       Uiso       1.00
      C600          C  0.4593949  0.8990801  0.7629834    0.00000       Uiso       1.00
      C601          C  0.4590103  0.8784467  0.7424766    0.00000       Uiso       1.00
      C602          C  0.4546191  0.8790501  0.7201854    0.00000       Uiso       1.00
      C603          C  0.4514938  0.9008960  0.7195626    0.00000       Uiso       1.00
      C604          C  0.4542892  0.9210733  0.7404751    0.00000       Uiso       1.00
       O10          O  0.4579917  0.9439725  0.8044067    0.00000       Uiso       1.00
      H316          H  0.4618272  0.8984585  0.7797223    0.00000       Uiso       1.00
      H317          H  0.4619878  0.8622193  0.7443532    0.00000       Uiso       1.00
      H318          H  0.4454604  0.9027293  0.7024873    0.00000       Uiso       1.00
      C605          C  0.4561537  0.9616276  0.6357108    0.00000       Uiso       1.00
      C606          C  0.4567020  0.9620860  0.6567523    0.00000       Uiso       1.00
      C607          C  0.4592583  0.9817314  0.6780649    0.00000       Uiso       1.00
      C608          C  0.4588575  0.9822434  0.6986898    0.00000       Uiso       1.00
      C609          C  0.4545064  0.9637159  0.6980923    0.00000       Uiso       1.00
      C610          C  0.4514295  0.9443541  0.6762553    0.00000       Uiso       1.00
      C611          C  0.4542372  0.9422995  0.6560882    0.00000       Uiso       1.00
       O11          O  0.4579223  0.9796414  0.6331899    0.00000       Uiso       1.00
      H319          H  0.4616736  0.9966717  0.6786880    0.00000       Uiso       1.00
      H320          H  0.4617990  0.9973884  0.7149079    0.00000       Uiso       1.00
      H321          H  0.4454136  0.9314597  0.6744105    0.00000       Uiso       1.00
      C612          C  0.4562195  0.7950796  0.6155846    0.00000       Uiso       1.00
      C613          C  0.4567838  0.8151101  0.6151364    0.00000       Uiso       1.00
      C614          C  0.4593333  0.8142201  0.5954879    0.00000       Uiso       1.00
      C615          C  0.4589291  0.8347325  0.5949708    0.00000       Uiso       1.00
      C616          C  0.4545905  0.8570140  0.6135046    0.00000       Uiso       1.00
      C617          C  0.4515305  0.8576142  0.6328779    0.00000       Uiso       1.00
      C618          C  0.4543324  0.8366935  0.6349289    0.00000       Uiso       1.00
       O12          O  0.4579619  0.7727864  0.5975561    0.00000       Uiso       1.00
      H322          H  0.4617392  0.7974863  0.5805460    0.00000       Uiso       1.00
      H323          H  0.4618553  0.8328623  0.5798154    0.00000       Uiso       1.00
      H324          H  0.4455266  0.8746808  0.6457812    0.00000       Uiso       1.00
        B4          B  0.4556927  0.7598200  0.6076927    0.00000       Uiso       1.00
        B5          B  0.4556744  0.9694942  0.6078232    0.00000       Uiso       1.00
        B6          B  0.4556960  0.9693508  0.8173604    0.00000       Uiso       1.00
       Si1         Si  0.3822376  0.3822378  0.5695335    0.00000       Uiso       1.00
        B7          B  0.3903252  0.3365234  0.5408019    0.00000       Uiso       1.00
       O13          O  0.3793846  0.3547456  0.5591703    0.00000       Uiso       1.00
       O14          O  0.4022196  0.3793848  0.5591703    0.00000       Uiso       1.00
        B8          B  0.3911329  0.3903255  0.5408019    0.00000       Uiso       1.00
        B9          B  0.3365232  0.3911331  0.5408019    0.00000       Uiso       1.00
       O15          O  0.3547454  0.4022198  0.5591703    0.00000       Uiso       1.00
       O16          O  0.3888804  0.3411810  0.5213467    0.00000       Uiso       1.00
       O17          O  0.3684652  0.3888806  0.5213467    0.00000       Uiso       1.00
       O18          O  0.3411808  0.3684654  0.5213467    0.00000       Uiso       1.00
       Si2         Si  0.3628321  0.3628323  0.5113165    0.00000       Uiso       1.00
      C619          C  0.3934000  0.3934002  0.6030211    0.00000       Uiso       1.00
      C620          C  0.3516691  0.3516694  0.4778274    0.00000       Uiso       1.00
      H325          H  0.4111087  0.3804309  0.6096407    0.00000       Uiso       1.00
      H326          H  0.3952802  0.4111089  0.6096407    0.00000       Uiso       1.00
      H327          H  0.3804307  0.3952804  0.6096407    0.00000       Uiso       1.00
      H328          H  0.3348771  0.3654615  0.4712057    0.00000       Uiso       1.00
      H329          H  0.3654613  0.3480475  0.4712057    0.00000       Uiso       1.00
      H330          H  0.3480473  0.3348774  0.4712057    0.00000       Uiso       1.00
       Si3         Si  0.3822391  0.3822393  0.1949464    0.00000       Uiso       1.00
       B10          B  0.3365246  0.3903269  0.1860512    0.00000       Uiso       1.00
       O19          O  0.3547469  0.3793865  0.1749645    0.00000       Uiso       1.00
       O20          O  0.3793859  0.4022213  0.2224385    0.00000       Uiso       1.00
       B11          B  0.3903264  0.3911344  0.2406607    0.00000       Uiso       1.00
       B12          B  0.3911343  0.3365249  0.1868588    0.00000       Uiso       1.00
       O21          O  0.4022211  0.3547471  0.1977993    0.00000       Uiso       1.00
       O22          O  0.3411820  0.3888819  0.2087189    0.00000       Uiso       1.00
       O23          O  0.3888815  0.3684666  0.2360032    0.00000       Uiso       1.00
       O24          O  0.3684665  0.3411824  0.1883038    0.00000       Uiso       1.00
       Si4         Si  0.3628333  0.3628335  0.2143520    0.00000       Uiso       1.00
      C621          C  0.3934017  0.3934020  0.1837838    0.00000       Uiso       1.00
      C622          C  0.3516701  0.3516704  0.2255150    0.00000       Uiso       1.00
      H331          H  0.3804324  0.4111107  0.1819036    0.00000       Uiso       1.00
      H332          H  0.4111103  0.3952822  0.1967531    0.00000       Uiso       1.00
      H333          H  0.3952820  0.3804328  0.1660752    0.00000       Uiso       1.00
      H334          H  0.3654622  0.3348783  0.2291369    0.00000       Uiso       1.00
      H335          H  0.3480482  0.3654624  0.2423070    0.00000       Uiso       1.00
      H336          H  0.3348781  0.3480485  0.2117230    0.00000       Uiso       1.00
      C623          C  0.9426829  0.7960410  0.6146880    0.00000       Uiso       1.00
      C624          C  0.9222407  0.8166333  0.6136063    0.00000       Uiso       1.00
      C625          C  0.9026206  0.8172881  0.5922466    0.00000       Uiso       1.00
      C626          C  0.8818303  0.8376404  0.5918193    0.00000       Uiso       1.00
      C627          C  0.8796494  0.8573257  0.6130937    0.00000       Uiso       1.00
      C628          C  0.8995135  0.8561281  0.6345006    0.00000       Uiso       1.00
      C629          C  0.9214391  0.8368868  0.6348282    0.00000       Uiso       1.00
       O25          O  0.9459631  0.7744480  0.5958589    0.00000       Uiso       1.00
      H337          H  0.9034948  0.8019176  0.5758473    0.00000       Uiso       1.00
      H338          H  0.8675215  0.8375525  0.5747152    0.00000       Uiso       1.00
      H339          H  0.8974520  0.8695070  0.6513398    0.00000       Uiso       1.00
      C630          C  0.9624969  0.9427103  0.7811089    0.00000       Uiso       1.00
      C631          C  0.9635813  0.9222735  0.7605102    0.00000       Uiso       1.00
      C632          C  0.9849364  0.9026456  0.7598550    0.00000       Uiso       1.00
      C633          C  0.9853575  0.8818548  0.7395030    0.00000       Uiso       1.00
      C634          C  0.9640810  0.8796774  0.7198203    0.00000       Uiso       1.00
      C635          C  0.9426818  0.8995557  0.7210160    0.00000       Uiso       1.00
      C636          C  0.9423621  0.9214817  0.7402556    0.00000       Uiso       1.00
       O26          O  0.9813199  0.9459733  0.8027110    0.00000       Uiso       1.00
      H340          H  0.0013342  0.9035068  0.7752272    0.00000       Uiso       1.00
      H341          H  0.0024585  0.8675408  0.7395947    0.00000       Uiso       1.00
      H342          H  0.9258382  0.8975083  0.7076448    0.00000       Uiso       1.00
      C637          C  0.7960597  0.9624873  0.6344698    0.00000       Uiso       1.00
      C638          C  0.8166618  0.9635767  0.6548966    0.00000       Uiso       1.00
      C639          C  0.8173205  0.9849428  0.6745057    0.00000       Uiso       1.00
      C640          C  0.8376806  0.9853792  0.6952901    0.00000       Uiso       1.00
      C641          C  0.8573691  0.9641064  0.6974736    0.00000       Uiso       1.00
      C642          C  0.8561711  0.9426939  0.6776121    0.00000       Uiso       1.00
      C643          C  0.8369166  0.9423572  0.6556948    0.00000       Uiso       1.00
       O27          O  0.7744682  0.9813178  0.6311966    0.00000       Uiso       1.00
      H343          H  0.8019395  0.0013352  0.6736273    0.00000       Uiso       1.00
      H344          H  0.8375922  0.0024859  0.7095954    0.00000       Uiso       1.00
      H345          H  0.8695554  0.9258560  0.6796717    0.00000       Uiso       1.00
      C644          C  0.7950811  0.9414530  0.6155719    0.00000       Uiso       1.00
      C645          C  0.8151076  0.9204042  0.6151202    0.00000       Uiso       1.00
      C646          C  0.8141981  0.8990809  0.5954955    0.00000       Uiso       1.00
      C647          C  0.8347049  0.8784475  0.5949841    0.00000       Uiso       1.00
      C648          C  0.8569962  0.8790506  0.6134873    0.00000       Uiso       1.00
      C649          C  0.8576190  0.9008964  0.6328307    0.00000       Uiso       1.00
      C650          C  0.8367064  0.9210739  0.6348910    0.00000       Uiso       1.00
       O28          O  0.7727747  0.9439735  0.5975616    0.00000       Uiso       1.00
      H346          H  0.7974593  0.8984595  0.5805675    0.00000       Uiso       1.00
      H347          H  0.8328286  0.8622200  0.5798579    0.00000       Uiso       1.00
      H348          H  0.8746943  0.9027295  0.6457057    0.00000       Uiso       1.00
      C651          C  0.9414704  0.9616271  0.7820731    0.00000       Uiso       1.00
      C652          C  0.9204289  0.9620855  0.7620384    0.00000       Uiso       1.00
      C653          C  0.8991163  0.9817311  0.7629276    0.00000       Uiso       1.00
      C654          C  0.8784915  0.9822432  0.7424141    0.00000       Uiso       1.00
      C655          C  0.8790889  0.9637159  0.7201331    0.00000       Uiso       1.00
      C656          C  0.9009261  0.9443539  0.7195312    0.00000       Uiso       1.00
      C657          C  0.9210932  0.9422992  0.7404512    0.00000       Uiso       1.00
       O29          O  0.9439914  0.9796407  0.8043762    0.00000       Uiso       1.00
      H349          H  0.8984931  0.9966713  0.7796600    0.00000       Uiso       1.00
      H350          H  0.8622732  0.9973883  0.7442825    0.00000       Uiso       1.00
      H351          H  0.9027710  0.9314595  0.7024658    0.00000       Uiso       1.00
      C658          C  0.9615975  0.7950796  0.6357176    0.00000       Uiso       1.00
      C659          C  0.9620456  0.8151100  0.6567605    0.00000       Uiso       1.00
      C660          C  0.9816940  0.8142198  0.6780683    0.00000       Uiso       1.00
      C661          C  0.9822111  0.8347321  0.6986936    0.00000       Uiso       1.00
      C662          C  0.9636772  0.8570137  0.6981027    0.00000       Uiso       1.00
      C663          C  0.9443039  0.8576141  0.6762698    0.00000       Uiso       1.00
      C664          C  0.9422529  0.8366935  0.6561000    0.00000       Uiso       1.00
       O30          O  0.9796261  0.7727863  0.6331950    0.00000       Uiso       1.00
      H352          H  0.9966360  0.7974859  0.6786822    0.00000       Uiso       1.00
      H353          H  0.9973664  0.8328618  0.7149047    0.00000       Uiso       1.00
      H354          H  0.9314005  0.8746807  0.6744291    0.00000       Uiso       1.00
       B13          B  0.9694895  0.7598201  0.6078231    0.00000       Uiso       1.00
       B14          B  0.9693581  0.9694933  0.8173476    0.00000       Uiso       1.00
       B15          B  0.7598208  0.9693517  0.6076904    0.00000       Uiso       1.00
       Si5         Si  0.0076505  0.3822396  0.1949467    0.00000       Uiso       1.00
       B16          B  0.0363822  0.3365251  0.1860515    0.00000       Uiso       1.00
       O31          O  0.0180137  0.3547474  0.1749647    0.00000       Uiso       1.00
       O32          O  0.0180135  0.3793865  0.2224388    0.00000       Uiso       1.00
       B17          B  0.0363820  0.3903269  0.2406609    0.00000       Uiso       1.00
       B18          B  0.0363822  0.3911348  0.1868591    0.00000       Uiso       1.00
       O33          O  0.0180136  0.4022216  0.1977996    0.00000       Uiso       1.00
       O34          O  0.0558374  0.3411825  0.2087192    0.00000       Uiso       1.00
       O35          O  0.0558372  0.3888820  0.2360035    0.00000       Uiso       1.00
       O36          O  0.0558374  0.3684670  0.1883041    0.00000       Uiso       1.00
       Si6         Si  0.0658676  0.3628337  0.2143523    0.00000       Uiso       1.00
      C665          C  0.9741630  0.3934022  0.1837841    0.00000       Uiso       1.00
      C666          C  0.0993567  0.3516706  0.2255153    0.00000       Uiso       1.00
      H355          H  0.9675435  0.3804329  0.1819039    0.00000       Uiso       1.00
      H356          H  0.9675434  0.4111108  0.1967534    0.00000       Uiso       1.00
      H357          H  0.9675435  0.3952825  0.1660755    0.00000       Uiso       1.00
      H358          H  0.1059785  0.3654627  0.2291372    0.00000       Uiso       1.00
      H359          H  0.1059785  0.3480486  0.2423073    0.00000       Uiso       1.00
      H360          H  0.1059786  0.3348787  0.2117233    0.00000       Uiso       1.00
      C667          C  0.9624920  0.7960385  0.1240362    0.00000       Uiso       1.00
      C668          C  0.9635737  0.8166308  0.1252681    0.00000       Uiso       1.00
      C669          C  0.9849334  0.8172855  0.1276624    0.00000       Uiso       1.00
      C670          C  0.9853608  0.8376377  0.1276516    0.00000       Uiso       1.00
      C671          C  0.9640862  0.8573232  0.1238818    0.00000       Uiso       1.00
      C672          C  0.9426792  0.8561257  0.1211415    0.00000       Uiso       1.00
      C673          C  0.9423516  0.8368844  0.1234982    0.00000       Uiso       1.00
       O37          O  0.9813210  0.7744454  0.1245526    0.00000       Uiso       1.00
      H361          H  0.0013325  0.8019149  0.1295654    0.00000       Uiso       1.00
      H362          H  0.0024645  0.8375498  0.1303591    0.00000       Uiso       1.00
      H363          H  0.9258401  0.8695047  0.1156198    0.00000       Uiso       1.00
      C674          C  0.7960703  0.9427086  0.1240995    0.00000       Uiso       1.00
      C675          C  0.8166691  0.9222716  0.1253458    0.00000       Uiso       1.00
      C676          C  0.8173243  0.9026437  0.1277281    0.00000       Uiso       1.00
      C677          C  0.8376764  0.8818528  0.1277103    0.00000       Uiso       1.00
      C678          C  0.8573593  0.8796754  0.1239390    0.00000       Uiso       1.00
      C679          C  0.8561634  0.8995538  0.1212224    0.00000       Uiso       1.00
      C680          C  0.8369238  0.9214798  0.1235892    0.00000       Uiso       1.00
       O38          O  0.7744681  0.9459716  0.1245834    0.00000       Uiso       1.00
      H364          H  0.8019520  0.9035050  0.1296153    0.00000       Uiso       1.00
      H365          H  0.8375846  0.8675388  0.1304059    0.00000       Uiso       1.00
      H366          H  0.8695349  0.8975062  0.1157026    0.00000       Uiso       1.00
      C681          C  0.9427101  0.9624849  0.1240778    0.00000       Uiso       1.00
      C682          C  0.9222832  0.9635743  0.1253425    0.00000       Uiso       1.00
      C683          C  0.9026740  0.9849405  0.1277583    0.00000       Uiso       1.00
      C684          C  0.8818895  0.9853770  0.1277705    0.00000       Uiso       1.00
      C685          C  0.8797060  0.9641042  0.1240026    0.00000       Uiso       1.00
      C686          C  0.8995675  0.9426917  0.1212536    0.00000       Uiso       1.00
      C687          C  0.9214850  0.9423549  0.1235797    0.00000       Uiso       1.00
       O39          O  0.9459834  0.9813153  0.1245899    0.00000       Uiso       1.00
      H367          H  0.9035526  0.0013329  0.1296482    0.00000       Uiso       1.00
      H368          H  0.8675842  0.0024837  0.1304836    0.00000       Uiso       1.00
      H369          H  0.8975080  0.9258538  0.1157405    0.00000       Uiso       1.00
      C688          C  0.9616080  0.9414505  0.1209627    0.00000       Uiso       1.00
      C689          C  0.9620598  0.9204017  0.1203920    0.00000       Uiso       1.00
      C690          C  0.9816846  0.8990783  0.1177839    0.00000       Uiso       1.00
      C691          C  0.9821959  0.8784449  0.1181687    0.00000       Uiso       1.00
      C692          C  0.9636927  0.8790481  0.1225600    0.00000       Uiso       1.00
      C693          C  0.9443492  0.9008940  0.1256852    0.00000       Uiso       1.00
      C694          C  0.9422889  0.9210715  0.1228897    0.00000       Uiso       1.00
       O40          O  0.9796184  0.9439709  0.1191869    0.00000       Uiso       1.00
      H370          H  0.9966125  0.8984569  0.1153516    0.00000       Uiso       1.00
      H371          H  0.9973223  0.8622175  0.1151911    0.00000       Uiso       1.00
      H372          H  0.9314741  0.9027272  0.1317186    0.00000       Uiso       1.00
      C695          C  0.7951062  0.9616253  0.1210257    0.00000       Uiso       1.00
      C696          C  0.8151410  0.9620836  0.1204772    0.00000       Uiso       1.00
      C697          C  0.8142517  0.9817293  0.1179209    0.00000       Uiso       1.00
      C698          C  0.8347653  0.9822413  0.1183216    0.00000       Uiso       1.00
      C699          C  0.8570463  0.9637139  0.1226727    0.00000       Uiso       1.00
      C700          C  0.8576483  0.9443519  0.1257497    0.00000       Uiso       1.00
      C701          C  0.8367282  0.9422972  0.1229421    0.00000       Uiso       1.00
       O41          O  0.7728029  0.9796390  0.1192571    0.00000       Uiso       1.00
      H373          H  0.7975192  0.9966696  0.1155056    0.00000       Uiso       1.00
      H374          H  0.8328969  0.9973865  0.1153800    0.00000       Uiso       1.00
      H375          H  0.8747137  0.9314574  0.1317655    0.00000       Uiso       1.00
      C702          C  0.9414623  0.7950772  0.1209600    0.00000       Uiso       1.00
      C703          C  0.9204194  0.8151076  0.1203957    0.00000       Uiso       1.00
      C704          C  0.8991114  0.8142176  0.1178463    0.00000       Uiso       1.00
      C705          C  0.8784860  0.8347300  0.1182504    0.00000       Uiso       1.00
      C706          C  0.8790770  0.8570116  0.1225890    0.00000       Uiso       1.00
      C707          C  0.9009098  0.8576118  0.1256489    0.00000       Uiso       1.00
      C708          C  0.9210798  0.8366911  0.1228470    0.00000       Uiso       1.00
       O42          O  0.9439849  0.7727838  0.1192178    0.00000       Uiso       1.00
      H376          H  0.8984976  0.7974837  0.1154405    0.00000       Uiso       1.00
      H377          H  0.8622749  0.8328597  0.1153244    0.00000       Uiso       1.00
      H378          H  0.9027505  0.8746784  0.1316527    0.00000       Uiso       1.00
       B19          B  0.9693569  0.7598175  0.1214869    0.00000       Uiso       1.00
       B20          B  0.7598314  0.9694917  0.1215051    0.00000       Uiso       1.00
       B21          B  0.9694895  0.9693492  0.1214826    0.00000       Uiso       1.00
       Si7         Si  0.3822349  0.0076463  0.1949420    0.00000       Uiso       1.00
       B22          B  0.3365205  0.0363780  0.1868544    0.00000       Uiso       1.00
       O43          O  0.3547427  0.0180094  0.1977949    0.00000       Uiso       1.00
       O44          O  0.3793820  0.0180095  0.1749600    0.00000       Uiso       1.00
       B23          B  0.3903225  0.0363780  0.1860468    0.00000       Uiso       1.00
       B24          B  0.3911299  0.0363778  0.2406562    0.00000       Uiso       1.00
       O45          O  0.4022169  0.0180093  0.2224341    0.00000       Uiso       1.00
       O46          O  0.3411780  0.0558333  0.1882994    0.00000       Uiso       1.00
       O47          O  0.3888775  0.0558332  0.2087145    0.00000       Uiso       1.00
       O48          O  0.3684622  0.0558330  0.2359988    0.00000       Uiso       1.00
       Si8         Si  0.3628291  0.0658634  0.2143476    0.00000       Uiso       1.00
      C709          C  0.3933974  0.9741588  0.1837794    0.00000       Uiso       1.00
      C710          C  0.3516660  0.0993526  0.2255107    0.00000       Uiso       1.00
      H379          H  0.3804282  0.9675393  0.1660708    0.00000       Uiso       1.00
      H380          H  0.4111061  0.9675392  0.1818991    0.00000       Uiso       1.00
      H381          H  0.3952776  0.9675391  0.1967487    0.00000       Uiso       1.00
      H382          H  0.3654580  0.1059743  0.2423026    0.00000       Uiso       1.00
      H383          H  0.3480441  0.1059744  0.2117186    0.00000       Uiso       1.00
      H384          H  0.3348740  0.1059743  0.2291325    0.00000       Uiso       1.00
