data_79
_audit_creation_date              0000-00-00
_audit_creation_method            'LanYouShi'
_symmetry_space_group_name_H-M    'P1'
_cell_length_a                    66.9181976
_cell_length_b                    66.9181976
_cell_length_c                    66.9181976
_cell_angle_alpha                 119.9992981
_cell_angle_beta                  119.9992981
_cell_angle_gamma                 60.0000000
loop_
_atom_site_label
_atom_site_type_symbol
_atom_site_fract_x
_atom_site_fract_y
_atom_site_fract_z
_atom_site_U_iso_or_equiv
_atom_site_adp_type
_atom_site_occupancy
        C1          C  0.4567255  0.7374604  0.5970944    0.00000       Uiso       1.00
        C2          C  0.4585234  0.7247511  0.5736353    0.00000       Uiso       1.00
        C3          C  0.4624525  0.6992677  0.5628596    0.00000       Uiso       1.00
        C4          C  0.4585230  0.7247508  0.6096416    0.00000       Uiso       1.00
        C5          C  0.4622951  0.6993495  0.5988916    0.00000       Uiso       1.00
        C6          C  0.4644828  0.6859412  0.5752744    0.00000       Uiso       1.00
        H1          H  0.3909287  0.4555913  0.3096935    0.00000       Uiso       1.00
        H2          H  0.4570363  0.7348413  0.6287655    0.00000       Uiso       1.00
        H3          H  0.4570369  0.7348421  0.5631155    0.00000       Uiso       1.00
        C7          C  0.4029118  0.4029115  0.2625454    0.00000       Uiso       1.00
        C8          C  0.3903642  0.4263706  0.2752547    0.00000       Uiso       1.00
        C9          C  0.4011135  0.4372498  0.3006556    0.00000       Uiso       1.00
       C10          C  0.4263709  0.3903640  0.2752547    0.00000       Uiso       1.00
       C11          C  0.4371462  0.4011425  0.3007381    0.00000       Uiso       1.00
       C12          C  0.4247298  0.4248528  0.3140632    0.00000       Uiso       1.00
        H4          H  0.6903126  0.4631747  0.5444143    0.00000       Uiso       1.00
        H5          H  0.4368909  0.3712400  0.2651640    0.00000       Uiso       1.00
        H6          H  0.3712402  0.4368906  0.2651640    0.00000       Uiso       1.00
       C13          C  0.4029089  0.4029086  0.5432776    0.00000       Uiso       1.00
       C14          C  0.4263682  0.3903612  0.5414800    0.00000       Uiso       1.00
       C15          C  0.4372465  0.4011095  0.5377049    0.00000       Uiso       1.00
       C16          C  0.3903615  0.4263679  0.5414800    0.00000       Uiso       1.00
       C17          C  0.4011384  0.4371420  0.5375469    0.00000       Uiso       1.00
       C18          C  0.4248487  0.4247248  0.5355136    0.00000       Uiso       1.00
        H7          H  0.4631748  0.6903114  0.6090751    0.00000       Uiso       1.00
        H8          H  0.3712375  0.4368878  0.5429666    0.00000       Uiso       1.00
        H9          H  0.4368881  0.3712371  0.5429666    0.00000       Uiso       1.00
       C19          C  0.7374606  0.4567254  0.5970943    0.00000       Uiso       1.00
       C20          C  0.7247509  0.4585229  0.6096416    0.00000       Uiso       1.00
       C21          C  0.6992676  0.4624516  0.5988629    0.00000       Uiso       1.00
       C22          C  0.7247513  0.4585232  0.5736353    0.00000       Uiso       1.00
       C23          C  0.6993502  0.4622944  0.5627557    0.00000       Uiso       1.00
       C24          C  0.6859421  0.4644814  0.5751520    0.00000       Uiso       1.00
       H10          H  0.4555869  0.3909245  0.5368205    0.00000       Uiso       1.00
       C25          C  0.4999994  0.5000008  0.4999999    0.00000       Uiso       1.00
       H11          H  0.7348422  0.4570367  0.5631155    0.00000       Uiso       1.00
       H12          H  0.7348415  0.4570360  0.6287655    0.00000       Uiso       1.00
       Br1         Br  0.4657965  0.6827909  0.5311894    0.00000       Uiso       1.00
       Br2         Br  0.6827900  0.4657995  0.6174021    0.00000       Uiso       1.00
       Br3         Br  0.4688157  0.3826016  0.3172124    0.00000       Uiso       1.00
       Br4         Br  0.3825905  0.4688093  0.5341963    0.00000       Uiso       1.00
       C26          C  0.4689730  0.6584185  0.5638878    0.00000       Uiso       1.00
       C27          C  0.4596481  0.6470167  0.5382458    0.00000       Uiso       1.00
       C28          C  0.4639358  0.6214380  0.5276374    0.00000       Uiso       1.00
       C29          C  0.4827006  0.6432123  0.5785996    0.00000       Uiso       1.00
       C30          C  0.4869175  0.6176701  0.5682377    0.00000       Uiso       1.00
       C31          C  0.4775580  0.6067132  0.5426726    0.00000       Uiso       1.00
       H13          H  0.4905484  0.6511205  0.5981899    0.00000       Uiso       1.00
       H14          H  0.4487251  0.6580692  0.5264475    0.00000       Uiso       1.00
       C32          C  0.4361135  0.4364989  0.3415841    0.00000       Uiso       1.00
       C33          C  0.4214007  0.4526805  0.3567901    0.00000       Uiso       1.00
       C34          C  0.4317611  0.4636450  0.3823316    0.00000       Uiso       1.00
       C35          C  0.4617536  0.4315946  0.3529849    0.00000       Uiso       1.00
       C36          C  0.4723593  0.4422781  0.3785617    0.00000       Uiso       1.00
       C37          C  0.4573251  0.4584059  0.3932868    0.00000       Uiso       1.00
       H15          H  0.4735560  0.4196765  0.3419369    0.00000       Uiso       1.00
       H16          H  0.4018098  0.4565073  0.3488816    0.00000       Uiso       1.00
       C38          C  0.4364952  0.4361069  0.5310196    0.00000       Uiso       1.00
       C39          C  0.4526864  0.4213913  0.5172913    0.00000       Uiso       1.00
       C40          C  0.4636533  0.4317520  0.5130742    0.00000       Uiso       1.00
       C41          C  0.4315823  0.4617478  0.5403451    0.00000       Uiso       1.00
       C42          C  0.4422650  0.4723534  0.5360563    0.00000       Uiso       1.00
       C43          C  0.4584036  0.4573199  0.5224352    0.00000       Uiso       1.00
       H17          H  0.4196584  0.4735509  0.5512695    0.00000       Uiso       1.00
       H18          H  0.4565162  0.4017978  0.5094445    0.00000       Uiso       1.00
       C44          C  0.6584197  0.4689717  0.5635061    0.00000       Uiso       1.00
       C45          C  0.6470186  0.4596387  0.5684131    0.00000       Uiso       1.00
       C46          C  0.6214399  0.4639288  0.5577327    0.00000       Uiso       1.00
       C47          C  0.6432135  0.4827066  0.5473230    0.00000       Uiso       1.00
       C48          C  0.6176714  0.4869229  0.5363590    0.00000       Uiso       1.00
       C49          C  0.6067150  0.4775581  0.5416021    0.00000       Uiso       1.00
       H19          H  0.6511227  0.4905587  0.5434946    0.00000       Uiso       1.00
       H20          H  0.6580750  0.4487069  0.5803322    0.00000       Uiso       1.00
       C50          C  0.6102279  0.4548690  0.5629349    0.00000       Uiso       1.00
       C51          C  0.5847996  0.4594785  0.5525357    0.00000       Uiso       1.00
       C52          C  0.4978338  0.4370815  0.3897726    0.00000       Uiso       1.00
       C53          C  0.5082530  0.4474831  0.4151997    0.00000       Uiso       1.00
       H21          H  0.5097700  0.4247855  0.3788594    0.00000       Uiso       1.00
       H22          H  0.5279649  0.4429043  0.4232481    0.00000       Uiso       1.00
       H23          H  0.6211444  0.4443173  0.5752317    0.00000       Uiso       1.00
       H24          H  0.5767469  0.4523995  0.5571153    0.00000       Uiso       1.00
       C54          C  0.4819925  0.5809578  0.5321155    0.00000       Uiso       1.00
       C55          C  0.4730625  0.5699040  0.5065303    0.00000       Uiso       1.00
       C56          C  0.4781280  0.5442068  0.4960826    0.00000       Uiso       1.00
       C57          C  0.4956784  0.5662546  0.5471413    0.00000       Uiso       1.00
       C58          C  0.5003329  0.5406758  0.5365282    0.00000       Uiso       1.00
       C59          C  0.4916663  0.5289226  0.5108020    0.00000       Uiso       1.00
       H25          H  0.4516650  0.5074269  0.4704045    0.00000       Uiso       1.00
       H26          H  0.4680544  0.5236272  0.5280140    0.00000       Uiso       1.00
       C60          C  0.4678825  0.4691699  0.4190411    0.00000       Uiso       1.00
       C61          C  0.4528568  0.4852055  0.4337458    0.00000       Uiso       1.00
       C62          C  0.4634696  0.4955184  0.4593254    0.00000       Uiso       1.00
       C63          C  0.4934684  0.4635783  0.4300943    0.00000       Uiso       1.00
       C64          C  0.5039158  0.4737613  0.4557922    0.00000       Uiso       1.00
       C65          C  0.4891963  0.4902162  0.4710779    0.00000       Uiso       1.00
       H27          H  0.4719790  0.5363312  0.4763739    0.00000       Uiso       1.00
       H28          H  0.5296018  0.5112873  0.4925524    0.00000       Uiso       1.00
       C66          C  0.4691658  0.4678810  0.5180050    0.00000       Uiso       1.00
       C67          C  0.4852119  0.4528549  0.5043211    0.00000       Uiso       1.00
       C68          C  0.4955234  0.4634700  0.4996682    0.00000       Uiso       1.00
       C69          C  0.4635619  0.4934688  0.5269358    0.00000       Uiso       1.00
       C70          C  0.4737436  0.5039182  0.5218686    0.00000       Uiso       1.00
       C71          C  0.4902117  0.4891982  0.5083321    0.00000       Uiso       1.00
       H29          H  0.5363263  0.4719696  0.5319259    0.00000       Uiso       1.00
       H30          H  0.5112997  0.5295982  0.5483335    0.00000       Uiso       1.00
       C72          C  0.5809599  0.4819926  0.5308384    0.00000       Uiso       1.00
       C73          C  0.5699050  0.4730580  0.5364361    0.00000       Uiso       1.00
       C74          C  0.5442055  0.4781264  0.5262522    0.00000       Uiso       1.00
       C75          C  0.5662566  0.4956799  0.5147951    0.00000       Uiso       1.00
       C76          C  0.5406771  0.5003321  0.5044799    0.00000       Uiso       1.00
       C77          C  0.5289221  0.4916675  0.5097879    0.00000       Uiso       1.00
       H31          H  0.5074490  0.4516680  0.4887102    0.00000       Uiso       1.00
       H32          H  0.5236259  0.4680849  0.4636674    0.00000       Uiso       1.00
       C78          C  0.4474559  0.5082529  0.5405087    0.00000       Uiso       1.00
       C79          C  0.4370563  0.4978307  0.5451149    0.00000       Uiso       1.00
       C80          C  0.4903790  0.4273878  0.4951716    0.00000       Uiso       1.00
       C81          C  0.4797150  0.4169790  0.4994630    0.00000       Uiso       1.00
       C82          C  0.4594897  0.5847975  0.4917444    0.00000       Uiso       1.00
       C83          C  0.4548820  0.6102261  0.5021626    0.00000       Uiso       1.00
       C84          C  0.5048259  0.5774062  0.5726092    0.00000       Uiso       1.00
       C85          C  0.5005286  0.6027733  0.5830154    0.00000       Uiso       1.00
       C86          C  0.5774088  0.5048306  0.5096306    0.00000       Uiso       1.00
       C87          C  0.6027741  0.5005369  0.5202984    0.00000       Uiso       1.00
       C88          C  0.4273895  0.4903641  0.4225951    0.00000       Uiso       1.00
       C89          C  0.4169841  0.4796996  0.3972295    0.00000       Uiso       1.00
       H33          H  0.4154586  0.5025685  0.4335348    0.00000       Uiso       1.00
       H34          H  0.3973080  0.4839774  0.3892483    0.00000       Uiso       1.00
       H35          H  0.4840002  0.3973017  0.4920512    0.00000       Uiso       1.00
       H36          H  0.5025910  0.4154567  0.4845141    0.00000       Uiso       1.00
       H37          H  0.4428678  0.5279666  0.5475842    0.00000       Uiso       1.00
       H38          H  0.4247516  0.5097656  0.5556592    0.00000       Uiso       1.00
       H39          H  0.5079352  0.6107594  0.6026919    0.00000       Uiso       1.00
       H40          H  0.5154836  0.5664703  0.5845432    0.00000       Uiso       1.00
       H41          H  0.4524151  0.5767485  0.4720333    0.00000       Uiso       1.00
       H42          H  0.4443376  0.6211448  0.4902314    0.00000       Uiso       1.00
       H43          H  0.6107565  0.5079476  0.5160160    0.00000       Uiso       1.00
       H44          H  0.5664707  0.5154865  0.4974167    0.00000       Uiso       1.00
       C90          C  0.8147027  0.7374566  0.9550715    0.00000       Uiso       1.00
       C91          C  0.8021553  0.7247472  0.9532739    0.00000       Uiso       1.00
       C92          C  0.8129340  0.6992636  0.9493449    0.00000       Uiso       1.00
       C93          C  0.8381619  0.7247472  0.9532739    0.00000       Uiso       1.00
       C94          C  0.8490413  0.6993458  0.9495020    0.00000       Uiso       1.00
       C95          C  0.8366449  0.6859373  0.9473145    0.00000       Uiso       1.00
       H45          H  0.8749701  0.4555837  0.0208704    0.00000       Uiso       1.00
       H46          H  0.8486818  0.7348379  0.9547604    0.00000       Uiso       1.00
       H47          H  0.7830312  0.7348379  0.9547604    0.00000       Uiso       1.00
       C96          C  0.8685197  0.4029035  0.0088880    0.00000       Uiso       1.00
       C97          C  0.8703172  0.4263626  0.0214353    0.00000       Uiso       1.00
       C98          C  0.8740894  0.4372422  0.0106859    0.00000       Uiso       1.00
       C99          C  0.8703173  0.3903564  0.9854293    0.00000       Uiso       1.00
      C100          C  0.8742466  0.4011353  0.9746538    0.00000       Uiso       1.00
      C101          C  0.8762774  0.4248457  0.9870699    0.00000       Uiso       1.00
       H48          H  0.8027243  0.4631729  0.7214875    0.00000       Uiso       1.00
       H49          H  0.8688308  0.3712325  0.9749094    0.00000       Uiso       1.00
       H50          H  0.8688303  0.4368823  0.0405592    0.00000       Uiso       1.00
      C102          C  0.1492542  0.4029037  0.0088879    0.00000       Uiso       1.00
      C103          C  0.1365448  0.3903566  0.9854291    0.00000       Uiso       1.00
      C104          C  0.1111433  0.4011049  0.9745510    0.00000       Uiso       1.00
      C105          C  0.1365446  0.4263628  0.0214352    0.00000       Uiso       1.00
      C106          C  0.1110607  0.4371370  0.0106585    0.00000       Uiso       1.00
      C107          C  0.0977344  0.4247201  0.9869487    0.00000       Uiso       1.00
       H51          H  0.8673830  0.6903078  0.9486222    0.00000       Uiso       1.00
       H52          H  0.1466352  0.4368825  0.0405590    0.00000       Uiso       1.00
       H53          H  0.1466357  0.3712326  0.9749093    0.00000       Uiso       1.00
      C108          C  0.8147057  0.4567246  0.6743395    0.00000       Uiso       1.00
      C109          C  0.8381648  0.4585221  0.6870489    0.00000       Uiso       1.00
      C110          C  0.8489405  0.4624504  0.7125320    0.00000       Uiso       1.00
      C111          C  0.8021582  0.4585220  0.6870489    0.00000       Uiso       1.00
      C112          C  0.8129083  0.4622928  0.7124497    0.00000       Uiso       1.00
      C113          C  0.8365255  0.4644799  0.7258577    0.00000       Uiso       1.00
       H54          H  0.1021037  0.3909201  0.9562107    0.00000       Uiso       1.00
      C114          C  0.9117954  0.4999964  0.9117991    0.00000       Uiso       1.00
       H55          H  0.7830342  0.4570355  0.6769581    0.00000       Uiso       1.00
       H56          H  0.8486848  0.4570355  0.6769581    0.00000       Uiso       1.00
       Br5         Br  0.7943969  0.6827866  0.9460013    0.00000       Uiso       1.00
       Br6         Br  0.8806090  0.4657983  0.7290092    0.00000       Uiso       1.00
       Br7         Br  0.8775925  0.3825950  0.9429845    0.00000       Uiso       1.00
       Br8         Br  0.0945905  0.4688041  0.0292062    0.00000       Uiso       1.00
      C115          C  0.8482910  0.6584145  0.9428245    0.00000       Uiso       1.00
      C116          C  0.8433759  0.6470123  0.9521496    0.00000       Uiso       1.00
      C117          C  0.8540586  0.6214336  0.9478620    0.00000       Uiso       1.00
      C118          C  0.8644814  0.6432086  0.9290969    0.00000       Uiso       1.00
      C119          C  0.8754450  0.6176664  0.9248802    0.00000       Uiso       1.00
      C120          C  0.8701964  0.6067091  0.9342399    0.00000       Uiso       1.00
       H57          H  0.8683156  0.6511171  0.9212490    0.00000       Uiso       1.00
       H58          H  0.8314481  0.6580646  0.9630726    0.00000       Uiso       1.00
      C121          C  0.8807684  0.4364921  0.9756860    0.00000       Uiso       1.00
      C122          C  0.8945053  0.4526739  0.9903985    0.00000       Uiso       1.00
      C123          C  0.8987218  0.4636387  0.9800379    0.00000       Uiso       1.00
      C124          C  0.8714336  0.4315883  0.9500461    0.00000       Uiso       1.00
      C125          C  0.8757210  0.4422722  0.9394402    0.00000       Uiso       1.00
      C126          C  0.8893523  0.4583999  0.9544742    0.00000       Uiso       1.00
       H59          H  0.8605016  0.4196702  0.9382439    0.00000       Uiso       1.00
       H60          H  0.9023610  0.4565002  0.0099890    0.00000       Uiso       1.00
      C127          C  0.0702119  0.4361022  0.9753023    0.00000       Uiso       1.00
      C128          C  0.0550084  0.4213867  0.9591115    0.00000       Uiso       1.00
      C129          C  0.0294637  0.4317475  0.9481447    0.00000       Uiso       1.00
      C130          C  0.0588092  0.4617431  0.9802151    0.00000       Uiso       1.00
      C131          C  0.0332323  0.4723488  0.9695325    0.00000       Uiso       1.00
      C132          C  0.0185064  0.4573154  0.9533943    0.00000       Uiso       1.00
       H61          H  0.0698543  0.4735462  0.9921387    0.00000       Uiso       1.00
       H62          H  0.0629254  0.4017931  0.9552818    0.00000       Uiso       1.00
      C133          C  0.8479114  0.4689697  0.7533798    0.00000       Uiso       1.00
      C134          C  0.8735524  0.4596367  0.7647808    0.00000       Uiso       1.00
      C135          C  0.8841605  0.4639263  0.7903593    0.00000       Uiso       1.00
      C136          C  0.8331997  0.4827043  0.7685860    0.00000       Uiso       1.00
      C137          C  0.8435613  0.4869201  0.7941280    0.00000       Uiso       1.00
      C138          C  0.8691254  0.4775553  0.8050842    0.00000       Uiso       1.00
       H63          H  0.8136100  0.4905564  0.7606769    0.00000       Uiso       1.00
       H64          H  0.8853468  0.4487051  0.7537244    0.00000       Uiso       1.00
      C139          C  0.9096343  0.4548665  0.8015711    0.00000       Uiso       1.00
      C140          C  0.9200537  0.4594756  0.8269992    0.00000       Uiso       1.00
      C141          C  0.8666543  0.4370759  0.9139659    0.00000       Uiso       1.00
      C142          C  0.8712602  0.4474780  0.9035465    0.00000       Uiso       1.00
       H65          H  0.8561012  0.4247799  0.9020299    0.00000       Uiso       1.00
       H66          H  0.8641757  0.4428994  0.8838347    0.00000       Uiso       1.00
       H67          H  0.9215662  0.4443150  0.7906546    0.00000       Uiso       1.00
       H68          H  0.9397649  0.4523965  0.8350518    0.00000       Uiso       1.00
      C143          C  0.8809605  0.5809535  0.9298055    0.00000       Uiso       1.00
      C144          C  0.8753591  0.5698994  0.9387357    0.00000       Uiso       1.00
      C145          C  0.8855433  0.5442021  0.9336703    0.00000       Uiso       1.00
      C146          C  0.8970034  0.5662507  0.9161196    0.00000       Uiso       1.00
      C147          C  0.9073148  0.5406718  0.9114652    0.00000       Uiso       1.00
      C148          C  0.9020087  0.5289182  0.9201320    0.00000       Uiso       1.00
       H69          H  0.9231082  0.5074217  0.9601333    0.00000       Uiso       1.00
       H70          H  0.9481274  0.5236229  0.9437435    0.00000       Uiso       1.00
      C149          C  0.8937849  0.4691644  0.9439165    0.00000       Uiso       1.00
      C150          C  0.9074795  0.4852000  0.9589419    0.00000       Uiso       1.00
      C151          C  0.9121332  0.4955132  0.9483290    0.00000       Uiso       1.00
      C152          C  0.8848439  0.4635732  0.9183307    0.00000       Uiso       1.00
      C153          C  0.8899114  0.4737565  0.9078832    0.00000       Uiso       1.00
      C154          C  0.9034613  0.4902114  0.9226024    0.00000       Uiso       1.00
       H71          H  0.8798593  0.5363263  0.9398194    0.00000       Uiso       1.00
       H72          H  0.8634595  0.5112832  0.8821971    0.00000       Uiso       1.00
      C155          C  0.9927534  0.4678766  0.9426323    0.00000       Uiso       1.00
      C156          C  0.9780498  0.4528505  0.9265864    0.00000       Uiso       1.00
      C157          C  0.9524705  0.4634657  0.9162751    0.00000       Uiso       1.00
      C158          C  0.9817002  0.4934643  0.9482359    0.00000       Uiso       1.00
      C159          C  0.9560021  0.5039138  0.9380544    0.00000       Uiso       1.00
      C160          C  0.9407178  0.4891939  0.9215866    0.00000       Uiso       1.00
       H73          H  0.9354258  0.4719660  0.8754722    0.00000       Uiso       1.00
       H74          H  0.9192309  0.5295945  0.9004984    0.00000       Uiso       1.00
      C161          C  0.8796822  0.4819895  0.8308392    0.00000       Uiso       1.00
      C162          C  0.9052691  0.4730548  0.8418939    0.00000       Uiso       1.00
      C163          C  0.9157162  0.4781228  0.8675932    0.00000       Uiso       1.00
      C164          C  0.8646550  0.4956764  0.8455424    0.00000       Uiso       1.00
      C165          C  0.8752669  0.5003282  0.8711219    0.00000       Uiso       1.00
      C166          C  0.9009943  0.4916635  0.8828766    0.00000       Uiso       1.00
       H75          H  0.9413891  0.4516636  0.9043497    0.00000       Uiso       1.00
       H76          H  0.8837531  0.4680804  0.8881733    0.00000       Uiso       1.00
      C167          C  0.9965947  0.5082484  0.9643416    0.00000       Uiso       1.00
      C168          C  0.0220222  0.4978262  0.9747411    0.00000       Uiso       1.00
      C169          C  0.9892005  0.4273833  0.9214195    0.00000       Uiso       1.00
      C170          C  0.0145642  0.4169744  0.9320833    0.00000       Uiso       1.00
      C171          C  0.8592525  0.5847927  0.9523084    0.00000       Uiso       1.00
      C172          C  0.8488498  0.6102213  0.9569160    0.00000       Uiso       1.00
      C173          C  0.9021721  0.5774027  0.9069719    0.00000       Uiso       1.00
      C174          C  0.8915083  0.6027699  0.9112690    0.00000       Uiso       1.00
      C175          C  0.8391876  0.5048272  0.8343905    0.00000       Uiso       1.00
      C176          C  0.8287839  0.5005339  0.8090253    0.00000       Uiso       1.00
      C177          C  0.9166374  0.4903581  0.9844091    0.00000       Uiso       1.00
      C178          C  0.9123418  0.4796932  0.9948146    0.00000       Uiso       1.00
       H77          H  0.9273032  0.5025626  0.9963397    0.00000       Uiso       1.00
       H78          H  0.9197589  0.4839707  0.0144903    0.00000       Uiso       1.00
       H79          H  0.0225446  0.3972971  0.9277983    0.00000       Uiso       1.00
       H80          H  0.9782624  0.4154522  0.9092077    0.00000       Uiso       1.00
       H81          H  0.9885443  0.5279622  0.9689296    0.00000       Uiso       1.00
       H82          H  0.0329360  0.5097612  0.9870455    0.00000       Uiso       1.00
       H83          H  0.8957921  0.6107563  0.9038624    0.00000       Uiso       1.00
       H84          H  0.9143842  0.5664670  0.8963141    0.00000       Uiso       1.00
       H85          H  0.8546651  0.5767434  0.9593831    0.00000       Uiso       1.00
       H86          H  0.8365443  0.6211397  0.9674604    0.00000       Uiso       1.00
       H87          H  0.8091087  0.5079445  0.8010430    0.00000       Uiso       1.00
       H88          H  0.8272561  0.5154828  0.8453286    0.00000       Uiso       1.00
      C179          C  0.8147064  0.7374604  0.5970943    0.00000       Uiso       1.00
      C180          C  0.8381656  0.7247508  0.6096416    0.00000       Uiso       1.00
      C181          C  0.8489415  0.6992673  0.5988630    0.00000       Uiso       1.00
      C182          C  0.8021592  0.7247512  0.5736353    0.00000       Uiso       1.00
      C183          C  0.8129095  0.6993500  0.5627562    0.00000       Uiso       1.00
      C184          C  0.8365269  0.6859413  0.5751524    0.00000       Uiso       1.00
       H89          H  0.1021107  0.4555890  0.5368270    0.00000       Uiso       1.00
       H90          H  0.7830353  0.7348421  0.5631155    0.00000       Uiso       1.00
       H91          H  0.8486853  0.7348414  0.6287655    0.00000       Uiso       1.00
      C185          C  0.1492592  0.4029086  0.5432776    0.00000       Uiso       1.00
      C186          C  0.1365498  0.4263678  0.5414800    0.00000       Uiso       1.00
      C187          C  0.1111486  0.4372474  0.5377079    0.00000       Uiso       1.00
      C188          C  0.1365498  0.3903612  0.5414801    0.00000       Uiso       1.00
      C189          C  0.1110662  0.4011400  0.5375509    0.00000       Uiso       1.00
      C190          C  0.0977410  0.4248506  0.5355198    0.00000       Uiso       1.00
       H92          H  0.8673869  0.4631740  0.6090751    0.00000       Uiso       1.00
       H93          H  0.1466405  0.3712371  0.5429666    0.00000       Uiso       1.00
       H94          H  0.1466405  0.4368877  0.5429666    0.00000       Uiso       1.00
      C191          C  0.8685273  0.4029117  0.2625457    0.00000       Uiso       1.00
      C192          C  0.8703248  0.3903641  0.2752550    0.00000       Uiso       1.00
      C193          C  0.8740997  0.4011120  0.3006563    0.00000       Uiso       1.00
      C194          C  0.8703248  0.4263708  0.2752550    0.00000       Uiso       1.00
      C195          C  0.8742577  0.4371446  0.3007388    0.00000       Uiso       1.00
      C196          C  0.8762908  0.4247272  0.3140650    0.00000       Uiso       1.00
       H95          H  0.8027261  0.6903121  0.5444146    0.00000       Uiso       1.00
       H96          H  0.8688383  0.4368908  0.2651644    0.00000       Uiso       1.00
       H97          H  0.8688383  0.3712402  0.2651644    0.00000       Uiso       1.00
      C197          C  0.8147065  0.4567254  0.5970943    0.00000       Uiso       1.00
      C198          C  0.8021594  0.4585232  0.5736353    0.00000       Uiso       1.00
      C199          C  0.8129383  0.4624520  0.5628594    0.00000       Uiso       1.00
      C200          C  0.8381656  0.4585229  0.6096416    0.00000       Uiso       1.00
      C201          C  0.8490454  0.4622940  0.5988913    0.00000       Uiso       1.00
      C202          C  0.8366492  0.4644815  0.5752742    0.00000       Uiso       1.00
       H98          H  0.8749840  0.3909270  0.3096961    0.00000       Uiso       1.00
      C203          C  0.9118029  0.5000008  0.5000031    0.00000       Uiso       1.00
       H99          H  0.8486853  0.4570360  0.6287655    0.00000       Uiso       1.00
      H100          H  0.7830354  0.4570368  0.5631155    0.00000       Uiso       1.00
       Br9         Br  0.8806119  0.6827901  0.6174000    0.00000       Uiso       1.00
      Br10         Br  0.7943992  0.4658004  0.5311911    0.00000       Uiso       1.00
      Br11         Br  0.0945917  0.3825994  0.5342054    0.00000       Uiso       1.00
      Br12         Br  0.8776081  0.4688117  0.3172086    0.00000       Uiso       1.00
      C204          C  0.8479137  0.6584185  0.5635065    0.00000       Uiso       1.00
      C205          C  0.8735560  0.6470164  0.5684215    0.00000       Uiso       1.00
      C206          C  0.8841646  0.6214377  0.5577390    0.00000       Uiso       1.00
      C207          C  0.8332019  0.6432127  0.5473164    0.00000       Uiso       1.00
      C208          C  0.8435640  0.6176705  0.5363530    0.00000       Uiso       1.00
      C209          C  0.8691294  0.6067132  0.5416014    0.00000       Uiso       1.00
      H101          H  0.8136114  0.6511211  0.5434824    0.00000       Uiso       1.00
      H102          H  0.8853542  0.6580687  0.5803490    0.00000       Uiso       1.00
      C210          C  0.0702198  0.4364969  0.5310290    0.00000       Uiso       1.00
      C211          C  0.0550138  0.4526789  0.5172923    0.00000       Uiso       1.00
      C212          C  0.0294720  0.4636437  0.5130759    0.00000       Uiso       1.00
      C213          C  0.0588188  0.4315927  0.5403641    0.00000       Uiso       1.00
      C214          C  0.0332417  0.4422765  0.5360768    0.00000       Uiso       1.00
      C215          C  0.0185166  0.4584046  0.5224456    0.00000       Uiso       1.00
      H103          H  0.0698668  0.4196743  0.5512961    0.00000       Uiso       1.00
      H104          H  0.0629224  0.4565057  0.5094366    0.00000       Uiso       1.00
      C216          C  0.8807846  0.4361089  0.3415873    0.00000       Uiso       1.00
      C217          C  0.8945129  0.4213931  0.3567909    0.00000       Uiso       1.00
      C218          C  0.8987297  0.4317535  0.3823353    0.00000       Uiso       1.00
      C219          C  0.8714589  0.4617498  0.3529898    0.00000       Uiso       1.00
      C220          C  0.8757474  0.4723551  0.3785666    0.00000       Uiso       1.00
      C221          C  0.8893686  0.4573214  0.3932925    0.00000       Uiso       1.00
      H105          H  0.8605344  0.4735532  0.3419447    0.00000       Uiso       1.00
      H106          H  0.9023599  0.4017996  0.3488739    0.00000       Uiso       1.00
      C222          C  0.8482954  0.4689718  0.5638881    0.00000       Uiso       1.00
      C223          C  0.8433886  0.4596391  0.5382473    0.00000       Uiso       1.00
      C224          C  0.8540692  0.4639291  0.5276390    0.00000       Uiso       1.00
      C225          C  0.8644785  0.4827063  0.5785995    0.00000       Uiso       1.00
      C226          C  0.8754428  0.4869226  0.5682377    0.00000       Uiso       1.00
      C227          C  0.8701999  0.4775581  0.5426738    0.00000       Uiso       1.00
      H107          H  0.8683068  0.4905582  0.5981891    0.00000       Uiso       1.00
      H108          H  0.8314696  0.4487075  0.5264531    0.00000       Uiso       1.00
      C228          C  0.8488672  0.4548697  0.5021654    0.00000       Uiso       1.00
      C229          C  0.8592668  0.4594792  0.4917458    0.00000       Uiso       1.00
      C230          C  0.0220307  0.4370799  0.5451438    0.00000       Uiso       1.00
      C231          C  0.9966037  0.4474819  0.5405380    0.00000       Uiso       1.00
      H109          H  0.0329438  0.4247837  0.5556969    0.00000       Uiso       1.00
      H110          H  0.9885551  0.4429030  0.5476226    0.00000       Uiso       1.00
      H111          H  0.8365705  0.4443182  0.4902337    0.00000       Uiso       1.00
      H112          H  0.8546873  0.4524004  0.4720348    0.00000       Uiso       1.00
      C232          C  0.8796867  0.5809578  0.5308375    0.00000       Uiso       1.00
      C233          C  0.9052721  0.5699037  0.5364387    0.00000       Uiso       1.00
      C234          C  0.9157200  0.5442065  0.5262547    0.00000       Uiso       1.00
      C235          C  0.8646610  0.5662550  0.5147949    0.00000       Uiso       1.00
      C236          C  0.8752742  0.5406762  0.5044836    0.00000       Uiso       1.00
      C237          C  0.9010006  0.5289226  0.5097896    0.00000       Uiso       1.00
      H113          H  0.9413989  0.5074267  0.4886900    0.00000       Uiso       1.00
      H114          H  0.8837889  0.5236280  0.4636711    0.00000       Uiso       1.00
      C238          C  0.9927624  0.4691689  0.5180131    0.00000       Uiso       1.00
      C239          C  0.9780577  0.4852048  0.5043185    0.00000       Uiso       1.00
      C240          C  0.9524779  0.4955180  0.4996649    0.00000       Uiso       1.00
      C241          C  0.9817091  0.4635774  0.5269543    0.00000       Uiso       1.00
      C242          C  0.9560109  0.4737606  0.5218869    0.00000       Uiso       1.00
      C243          C  0.9407252  0.4902158  0.5083370    0.00000       Uiso       1.00
      H115          H  0.9354289  0.5363306  0.5319386    0.00000       Uiso       1.00
      H116          H  0.9192500  0.5112867  0.5483388    0.00000       Uiso       1.00
      C244          C  0.8937986  0.4678822  0.4190457    0.00000       Uiso       1.00
      C245          C  0.9074824  0.4528557  0.4337493    0.00000       Uiso       1.00
      C246          C  0.9121351  0.4634705  0.4593284    0.00000       Uiso       1.00
      C247          C  0.8848675  0.4934698  0.4300987    0.00000       Uiso       1.00
      C248          C  0.8899345  0.5039189  0.4557966    0.00000       Uiso       1.00
      C249          C  0.9034710  0.4891987  0.4710810    0.00000       Uiso       1.00
      H117          H  0.8798769  0.4719702  0.4763733    0.00000       Uiso       1.00
      H118          H  0.8634689  0.5295989  0.4925678    0.00000       Uiso       1.00
      C250          C  0.8809639  0.4819927  0.5321169    0.00000       Uiso       1.00
      C251          C  0.8753663  0.4730584  0.5065300    0.00000       Uiso       1.00
      C252          C  0.8855504  0.4781268  0.4960828    0.00000       Uiso       1.00
      C253          C  0.8970071  0.4956796  0.5471438    0.00000       Uiso       1.00
      C254          C  0.9073225  0.5003318  0.5365317    0.00000       Uiso       1.00
      C255          C  0.9020148  0.4916675  0.5108044    0.00000       Uiso       1.00
      H119          H  0.9230931  0.4516682  0.4704098    0.00000       Uiso       1.00
      H120          H  0.9481356  0.4680842  0.5280454    0.00000       Uiso       1.00
      C256          C  0.8712946  0.5082542  0.4152041    0.00000       Uiso       1.00
      C257          C  0.8666887  0.4978324  0.3897765    0.00000       Uiso       1.00
      C258          C  0.9166321  0.4273886  0.4225987    0.00000       Uiso       1.00
      C259          C  0.9123410  0.4169801  0.3972349    0.00000       Uiso       1.00
      C260          C  0.9200580  0.5847970  0.5525450    0.00000       Uiso       1.00
      C261          C  0.9096395  0.6102256  0.5629476    0.00000       Uiso       1.00
      C262          C  0.8391928  0.5774069  0.5096263    0.00000       Uiso       1.00
      C263          C  0.8287864  0.6027740  0.5202900    0.00000       Uiso       1.00
      C264          C  0.9021714  0.5048300  0.5726110    0.00000       Uiso       1.00
      C265          C  0.8915034  0.5005363  0.5830148    0.00000       Uiso       1.00
      C266          C  0.9892086  0.4903634  0.4951604    0.00000       Uiso       1.00
      C267          C  0.0145742  0.4796985  0.4994559    0.00000       Uiso       1.00
      H121          H  0.9782690  0.5025681  0.4844946    0.00000       Uiso       1.00
      H122          H  0.0225555  0.4839764  0.4920388    0.00000       Uiso       1.00
      H123          H  0.9197529  0.3973029  0.3892546    0.00000       Uiso       1.00
      H124          H  0.9272896  0.4154573  0.4335369    0.00000       Uiso       1.00
      H125          H  0.8642190  0.5279680  0.4232543    0.00000       Uiso       1.00
      H126          H  0.8561443  0.5097676  0.3788627    0.00000       Uiso       1.00
      H127          H  0.8091096  0.6107604  0.5160063    0.00000       Uiso       1.00
      H128          H  0.8272588  0.5664713  0.4974145    0.00000       Uiso       1.00
      H129          H  0.9397693  0.5767477  0.5571324    0.00000       Uiso       1.00
      H130          H  0.9215708  0.6211439  0.5752529    0.00000       Uiso       1.00
      H131          H  0.8957856  0.5079467  0.6026899    0.00000       Uiso       1.00
      H132          H  0.9143853  0.5154856  0.5845423    0.00000       Uiso       1.00
      C268          C  0.7374605  0.8147064  0.5970944    0.00000       Uiso       1.00
      C269          C  0.7247514  0.8021592  0.5736354    0.00000       Uiso       1.00
      C270          C  0.6992678  0.8129381  0.5628597    0.00000       Uiso       1.00
      C271          C  0.7247509  0.8381655  0.6096416    0.00000       Uiso       1.00
      C272          C  0.6993497  0.8490449  0.5988917    0.00000       Uiso       1.00
      C273          C  0.6859414  0.8366488  0.5752745    0.00000       Uiso       1.00
      H133          H  0.4555915  0.8749774  0.3096935    0.00000       Uiso       1.00
      H134          H  0.7348415  0.8486852  0.6287655    0.00000       Uiso       1.00
      H135          H  0.7348422  0.7830352  0.5631156    0.00000       Uiso       1.00
      C274          C  0.4029116  0.8685272  0.2625454    0.00000       Uiso       1.00
      C275          C  0.4263708  0.8703246  0.2752548    0.00000       Uiso       1.00
      C276          C  0.4372500  0.8740965  0.3006557    0.00000       Uiso       1.00
      C277          C  0.3903641  0.8703246  0.2752548    0.00000       Uiso       1.00
      C278          C  0.4011426  0.8742536  0.3007381    0.00000       Uiso       1.00
      C279          C  0.4248530  0.8762845  0.3140632    0.00000       Uiso       1.00
      H136          H  0.4631749  0.8027261  0.5444143    0.00000       Uiso       1.00
      H137          H  0.3712401  0.8688381  0.2651641    0.00000       Uiso       1.00
      H138          H  0.4368908  0.8688381  0.2651641    0.00000       Uiso       1.00
      C280          C  0.4029090  0.1492589  0.5432776    0.00000       Uiso       1.00
      C281          C  0.3903616  0.1365494  0.5414800    0.00000       Uiso       1.00
      C282          C  0.4011098  0.1111479  0.5377049    0.00000       Uiso       1.00
      C283          C  0.4263682  0.1365494  0.5414800    0.00000       Uiso       1.00
      C284          C  0.4371424  0.1110655  0.5375469    0.00000       Uiso       1.00
      C285          C  0.4247251  0.0977391  0.5355136    0.00000       Uiso       1.00
      H139          H  0.6903115  0.8673866  0.6090751    0.00000       Uiso       1.00
      H140          H  0.4368881  0.1466402  0.5429666    0.00000       Uiso       1.00
      H141          H  0.3712375  0.1466402  0.5429666    0.00000       Uiso       1.00
      C286          C  0.4567256  0.8147064  0.5970944    0.00000       Uiso       1.00
      C287          C  0.4585230  0.8381655  0.6096416    0.00000       Uiso       1.00
      C288          C  0.4624518  0.8489416  0.5988629    0.00000       Uiso       1.00
      C289          C  0.4585234  0.8021592  0.5736353    0.00000       Uiso       1.00
      C290          C  0.4622945  0.8129098  0.5627558    0.00000       Uiso       1.00
      C291          C  0.4644817  0.8365269  0.5751521    0.00000       Uiso       1.00
      H142          H  0.3909248  0.1021080  0.5368205    0.00000       Uiso       1.00
      C292          C  0.5000009  0.9117997  0.4999999    0.00000       Uiso       1.00
      H143          H  0.4570369  0.7830352  0.5631155    0.00000       Uiso       1.00
      H144          H  0.4570362  0.8486852  0.6287655    0.00000       Uiso       1.00
      Br13         Br  0.6827911  0.7944012  0.5311894    0.00000       Uiso       1.00
      Br14         Br  0.4657997  0.8806100  0.6174022    0.00000       Uiso       1.00
      Br15         Br  0.3826018  0.8775989  0.3172124    0.00000       Uiso       1.00
      Br16         Br  0.4688097  0.0945955  0.5341963    0.00000       Uiso       1.00
      C293          C  0.6584187  0.8482949  0.5638878    0.00000       Uiso       1.00
      C294          C  0.6470168  0.8433802  0.5382458    0.00000       Uiso       1.00
      C295          C  0.6214381  0.8540629  0.5276374    0.00000       Uiso       1.00
      C296          C  0.6432124  0.8644850  0.5785997    0.00000       Uiso       1.00
      C297          C  0.6176703  0.8754486  0.5682377    0.00000       Uiso       1.00
      C298          C  0.6067134  0.8702005  0.5426726    0.00000       Uiso       1.00
      H145          H  0.6511207  0.8683189  0.5981899    0.00000       Uiso       1.00
      H146          H  0.6580694  0.8314525  0.5264475    0.00000       Uiso       1.00
      C299          C  0.4364990  0.8807750  0.3415841    0.00000       Uiso       1.00
      C300          C  0.4526807  0.8945118  0.3567901    0.00000       Uiso       1.00
      C301          C  0.4636452  0.8987280  0.3823316    0.00000       Uiso       1.00
      C302          C  0.4315948  0.8714397  0.3529849    0.00000       Uiso       1.00
      C303          C  0.4422783  0.8757268  0.3785617    0.00000       Uiso       1.00
      C304          C  0.4584060  0.8893581  0.3932869    0.00000       Uiso       1.00
      H147          H  0.4196767  0.8605078  0.3419369    0.00000       Uiso       1.00
      H148          H  0.4565074  0.9023677  0.3488816    0.00000       Uiso       1.00
      C305          C  0.4361072  0.0702165  0.5310196    0.00000       Uiso       1.00
      C306          C  0.4213917  0.0550130  0.5172913    0.00000       Uiso       1.00
      C307          C  0.4317524  0.0294683  0.5130742    0.00000       Uiso       1.00
      C308          C  0.4617481  0.0588138  0.5403451    0.00000       Uiso       1.00
      C309          C  0.4723538  0.0332368  0.5360563    0.00000       Uiso       1.00
      C310          C  0.4573203  0.0185109  0.5224352    0.00000       Uiso       1.00
      H149          H  0.4735512  0.0698590  0.5512696    0.00000       Uiso       1.00
      H150          H  0.4017981  0.0629301  0.5094445    0.00000       Uiso       1.00
      C311          C  0.4689719  0.8479133  0.5635061    0.00000       Uiso       1.00
      C312          C  0.4596389  0.8735543  0.5684131    0.00000       Uiso       1.00
      C313          C  0.4639289  0.8841628  0.5577327    0.00000       Uiso       1.00
      C314          C  0.4827068  0.8332019  0.5473231    0.00000       Uiso       1.00
      C315          C  0.4869231  0.8435639  0.5363590    0.00000       Uiso       1.00
      C316          C  0.4775582  0.8691281  0.5416021    0.00000       Uiso       1.00
      H151          H  0.4905590  0.8136121  0.5434946    0.00000       Uiso       1.00
      H152          H  0.4487071  0.8853486  0.5803322    0.00000       Uiso       1.00
      C317          C  0.4548692  0.9096366  0.5629350    0.00000       Uiso       1.00
      C318          C  0.4594786  0.9200565  0.5525357    0.00000       Uiso       1.00
      C319          C  0.4370816  0.8666597  0.3897726    0.00000       Uiso       1.00
      C320          C  0.4474833  0.8712652  0.4151997    0.00000       Uiso       1.00
      H153          H  0.4247856  0.8561066  0.3788595    0.00000       Uiso       1.00
      H154          H  0.4429045  0.8641804  0.4232481    0.00000       Uiso       1.00
      H155          H  0.4443174  0.9215683  0.5752317    0.00000       Uiso       1.00
      H156          H  0.4523996  0.9397677  0.5571153    0.00000       Uiso       1.00
      C321          C  0.5809579  0.8809646  0.5321156    0.00000       Uiso       1.00
      C322          C  0.5699041  0.8753636  0.5065303    0.00000       Uiso       1.00
      C323          C  0.5442070  0.8855479  0.4960826    0.00000       Uiso       1.00
      C324          C  0.5662547  0.8970072  0.5471413    0.00000       Uiso       1.00
      C325          C  0.5406760  0.9073187  0.5365282    0.00000       Uiso       1.00
      C326          C  0.5289227  0.9020129  0.5108021    0.00000       Uiso       1.00
      H157          H  0.5074270  0.9231132  0.4704045    0.00000       Uiso       1.00
      H158          H  0.5236274  0.9481317  0.5280140    0.00000       Uiso       1.00
      C327          C  0.4691701  0.8937903  0.4190411    0.00000       Uiso       1.00
      C328          C  0.4852057  0.9074849  0.4337459    0.00000       Uiso       1.00
      C329          C  0.4955186  0.9121383  0.4593254    0.00000       Uiso       1.00
      C330          C  0.4635785  0.8848489  0.4300943    0.00000       Uiso       1.00
      C331          C  0.4737614  0.8899161  0.4557923    0.00000       Uiso       1.00
      C332          C  0.4902163  0.9034660  0.4710779    0.00000       Uiso       1.00
      H159          H  0.5363314  0.8798641  0.4763739    0.00000       Uiso       1.00
      H160          H  0.5112875  0.8634635  0.4925524    0.00000       Uiso       1.00
      C333          C  0.4678812  0.9927577  0.5180050    0.00000       Uiso       1.00
      C334          C  0.4528551  0.9780542  0.5043212    0.00000       Uiso       1.00
      C335          C  0.4634702  0.9524748  0.4996682    0.00000       Uiso       1.00
      C336          C  0.4934689  0.9817046  0.5269359    0.00000       Uiso       1.00
      C337          C  0.5039183  0.9560064  0.5218686    0.00000       Uiso       1.00
      C338          C  0.4891984  0.9407219  0.5083321    0.00000       Uiso       1.00
      H161          H  0.4719698  0.9354293  0.5319260    0.00000       Uiso       1.00
      H162          H  0.5295984  0.9192346  0.5483336    0.00000       Uiso       1.00
      C339          C  0.4819928  0.8796852  0.5308384    0.00000       Uiso       1.00
      C340          C  0.4730582  0.9052722  0.5364361    0.00000       Uiso       1.00
      C341          C  0.4781266  0.9157196  0.5262522    0.00000       Uiso       1.00
      C342          C  0.4956800  0.8646583  0.5147952    0.00000       Uiso       1.00
      C343          C  0.5003322  0.8752706  0.5044799    0.00000       Uiso       1.00
      C344          C  0.4916676  0.9009981  0.5097879    0.00000       Uiso       1.00
      H163          H  0.4516681  0.9413934  0.4887102    0.00000       Uiso       1.00
      H164          H  0.4680851  0.8837574  0.4636674    0.00000       Uiso       1.00
      C345          C  0.5082530  0.9965991  0.5405087    0.00000       Uiso       1.00
      C346          C  0.4978310  0.0220267  0.5451149    0.00000       Uiso       1.00
      C347          C  0.4273880  0.9892049  0.4951716    0.00000       Uiso       1.00
      C348          C  0.4169793  0.0145687  0.4994630    0.00000       Uiso       1.00
      C349          C  0.5847977  0.8592573  0.4917444    0.00000       Uiso       1.00
      C350          C  0.6102263  0.8488544  0.5021626    0.00000       Uiso       1.00
      C351          C  0.5774063  0.9021756  0.5726092    0.00000       Uiso       1.00
      C352          C  0.6027735  0.8915117  0.5830154    0.00000       Uiso       1.00
      C353          C  0.5048308  0.8391909  0.5096306    0.00000       Uiso       1.00
      C354          C  0.5005371  0.8287868  0.5202984    0.00000       Uiso       1.00
      C355          C  0.4903642  0.9166432  0.4225952    0.00000       Uiso       1.00
      C356          C  0.4796997  0.9123480  0.3972295    0.00000       Uiso       1.00
      H165          H  0.5025687  0.9273090  0.4335348    0.00000       Uiso       1.00
      H166          H  0.4839776  0.9197652  0.3892483    0.00000       Uiso       1.00
      H167          H  0.3973020  0.0225492  0.4920512    0.00000       Uiso       1.00
      H168          H  0.4154568  0.9782667  0.4845142    0.00000       Uiso       1.00
      H169          H  0.5279667  0.9885488  0.5475842    0.00000       Uiso       1.00
      H170          H  0.5097660  0.0329405  0.5556592    0.00000       Uiso       1.00
      H171          H  0.6107596  0.8957952  0.6026920    0.00000       Uiso       1.00
      H172          H  0.5664705  0.9143874  0.5845432    0.00000       Uiso       1.00
      H173          H  0.5767487  0.8546702  0.4720333    0.00000       Uiso       1.00
      H174          H  0.6211450  0.8365492  0.4902314    0.00000       Uiso       1.00
      H175          H  0.5079477  0.8091116  0.5160161    0.00000       Uiso       1.00
      H176          H  0.5154867  0.8272597  0.4974168    0.00000       Uiso       1.00
      C357          C  0.7374568  0.8147025  0.9550715    0.00000       Uiso       1.00
      C358          C  0.7247473  0.8381618  0.9532740    0.00000       Uiso       1.00
      C359          C  0.6992638  0.8489377  0.9493449    0.00000       Uiso       1.00
      C360          C  0.7247474  0.8021551  0.9532740    0.00000       Uiso       1.00
      C361          C  0.6993460  0.8129053  0.9495020    0.00000       Uiso       1.00
      C362          C  0.6859375  0.8365228  0.9473146    0.00000       Uiso       1.00
      H177          H  0.4555844  0.1021054  0.0208704    0.00000       Uiso       1.00
      H178          H  0.7348381  0.7830311  0.9547606    0.00000       Uiso       1.00
      H179          H  0.7348381  0.8486817  0.9547604    0.00000       Uiso       1.00
      C363          C  0.4029041  0.1492542  0.0088881    0.00000       Uiso       1.00
      C364          C  0.4263633  0.1365446  0.0214354    0.00000       Uiso       1.00
      C365          C  0.4372429  0.1111435  0.0106859    0.00000       Uiso       1.00
      C366          C  0.3903568  0.1365450  0.9854293    0.00000       Uiso       1.00
      C367          C  0.4011357  0.1110615  0.9746538    0.00000       Uiso       1.00
      C368          C  0.4248461  0.0977361  0.9870699    0.00000       Uiso       1.00
      H180          H  0.4631730  0.8673856  0.7214875    0.00000       Uiso       1.00
      H181          H  0.3712328  0.1466359  0.9749095    0.00000       Uiso       1.00
      H182          H  0.4368830  0.1466351  0.0405592    0.00000       Uiso       1.00
      C369          C  0.4029042  0.8685192  0.0088880    0.00000       Uiso       1.00
      C370          C  0.3903567  0.8703172  0.9854292    0.00000       Uiso       1.00
      C371          C  0.4011051  0.8740924  0.9745511    0.00000       Uiso       1.00
      C372          C  0.4263633  0.8703167  0.0214352    0.00000       Uiso       1.00
      C373          C  0.4371375  0.8742499  0.0106585    0.00000       Uiso       1.00
      C374          C  0.4247203  0.8762836  0.9869487    0.00000       Uiso       1.00
      H183          H  0.6903079  0.8027218  0.9486222    0.00000       Uiso       1.00
      H184          H  0.4368829  0.8688299  0.0405591    0.00000       Uiso       1.00
      H185          H  0.3712328  0.8688306  0.9749094    0.00000       Uiso       1.00
      C375          C  0.4567247  0.8147055  0.6743395    0.00000       Uiso       1.00
      C376          C  0.4585222  0.8021580  0.6870489    0.00000       Uiso       1.00
      C377          C  0.4624506  0.8129365  0.7125321    0.00000       Uiso       1.00
      C378          C  0.4585222  0.8381647  0.6870489    0.00000       Uiso       1.00
      C379          C  0.4622930  0.8490441  0.7124498    0.00000       Uiso       1.00
      C380          C  0.4644800  0.8366475  0.7258577    0.00000       Uiso       1.00
      H186          H  0.3909203  0.8749771  0.9562109    0.00000       Uiso       1.00
      C381          C  0.4999967  0.9117985  0.9117992    0.00000       Uiso       1.00
      H187          H  0.4570357  0.8486847  0.6769583    0.00000       Uiso       1.00
      H188          H  0.4570358  0.7830340  0.6769583    0.00000       Uiso       1.00
      Br17         Br  0.6827868  0.8806083  0.9460013    0.00000       Uiso       1.00
      Br18         Br  0.4657985  0.7943969  0.7290092    0.00000       Uiso       1.00
      Br19         Br  0.3825954  0.0945873  0.9429845    0.00000       Uiso       1.00
      Br20         Br  0.4688045  0.8776004  0.0292063    0.00000       Uiso       1.00
      C382          C  0.6584147  0.8479096  0.9428246    0.00000       Uiso       1.00
      C383          C  0.6470125  0.8735518  0.9521496    0.00000       Uiso       1.00
      C384          C  0.6214337  0.8841604  0.9478620    0.00000       Uiso       1.00
      C385          C  0.6432087  0.8331978  0.9290969    0.00000       Uiso       1.00
      C386          C  0.6176665  0.8435598  0.9248803    0.00000       Uiso       1.00
      C387          C  0.6067092  0.8691252  0.9342399    0.00000       Uiso       1.00
      H189          H  0.6511173  0.8136073  0.9212490    0.00000       Uiso       1.00
      H190          H  0.6580648  0.8853501  0.9630727    0.00000       Uiso       1.00
      C388          C  0.4364925  0.0702150  0.9756860    0.00000       Uiso       1.00
      C389          C  0.4526742  0.0550088  0.9903985    0.00000       Uiso       1.00
      C390          C  0.4636391  0.0294671  0.9800380    0.00000       Uiso       1.00
      C391          C  0.4315887  0.0588144  0.9500461    0.00000       Uiso       1.00
      C392          C  0.4422725  0.0332374  0.9394403    0.00000       Uiso       1.00
      C393          C  0.4584003  0.0185120  0.9544742    0.00000       Uiso       1.00
      H191          H  0.4196706  0.0698626  0.9382440    0.00000       Uiso       1.00
      H192          H  0.4565009  0.0629170  0.0099891    0.00000       Uiso       1.00
      C394          C  0.4361024  0.8807778  0.9753024    0.00000       Uiso       1.00
      C395          C  0.4213869  0.8945064  0.9591116    0.00000       Uiso       1.00
      C396          C  0.4317477  0.8987236  0.9481447    0.00000       Uiso       1.00
      C397          C  0.4617434  0.8714522  0.9802151    0.00000       Uiso       1.00
      C398          C  0.4723490  0.8757411  0.9695325    0.00000       Uiso       1.00
      C399          C  0.4573156  0.8893626  0.9533944    0.00000       Uiso       1.00
      H193          H  0.4735464  0.8605275  0.9921388    0.00000       Uiso       1.00
      H194          H  0.4017933  0.9023533  0.9552819    0.00000       Uiso       1.00
      C400          C  0.4689699  0.8482932  0.7533799    0.00000       Uiso       1.00
      C401          C  0.4596369  0.8433862  0.7647809    0.00000       Uiso       1.00
      C402          C  0.4639265  0.8540664  0.7903594    0.00000       Uiso       1.00
      C403          C  0.4827045  0.8644764  0.7685862    0.00000       Uiso       1.00
      C404          C  0.4869203  0.8754402  0.7941280    0.00000       Uiso       1.00
      C405          C  0.4775555  0.8701970  0.8050842    0.00000       Uiso       1.00
      H195          H  0.4905566  0.8683050  0.7606769    0.00000       Uiso       1.00
      H196          H  0.4487053  0.8314670  0.7537244    0.00000       Uiso       1.00
      C406          C  0.4548667  0.8488639  0.8015711    0.00000       Uiso       1.00
      C407          C  0.4594758  0.8592630  0.8269992    0.00000       Uiso       1.00
      C408          C  0.4370763  0.0220267  0.9139659    0.00000       Uiso       1.00
      C409          C  0.4474782  0.9965997  0.9035465    0.00000       Uiso       1.00
      H197          H  0.4247803  0.0329401  0.9020301    0.00000       Uiso       1.00
      H198          H  0.4428996  0.9885514  0.8838348    0.00000       Uiso       1.00
      H199          H  0.4443152  0.8365672  0.7906547    0.00000       Uiso       1.00
      H200          H  0.4523967  0.8546833  0.8350519    0.00000       Uiso       1.00
      C410          C  0.5809537  0.8796823  0.9298055    0.00000       Uiso       1.00
      C411          C  0.5698996  0.9052678  0.9387357    0.00000       Uiso       1.00
      C412          C  0.5442023  0.9157156  0.9336703    0.00000       Uiso       1.00
      C413          C  0.5662509  0.8646566  0.9161196    0.00000       Uiso       1.00
      C414          C  0.5406721  0.8752698  0.9114653    0.00000       Uiso       1.00
      C415          C  0.5289184  0.9009961  0.9201320    0.00000       Uiso       1.00
      H201          H  0.5074219  0.9413937  0.9601334    0.00000       Uiso       1.00
      H202          H  0.5236230  0.8837838  0.9437435    0.00000       Uiso       1.00
      C416          C  0.4691645  0.9927578  0.9439165    0.00000       Uiso       1.00
      C417          C  0.4852002  0.9780527  0.9589420    0.00000       Uiso       1.00
      C418          C  0.4955134  0.9524730  0.9483290    0.00000       Uiso       1.00
      C419          C  0.4635734  0.9817047  0.9183308    0.00000       Uiso       1.00
      C420          C  0.4737567  0.9560066  0.9078832    0.00000       Uiso       1.00
      C421          C  0.4902116  0.9407207  0.9226024    0.00000       Uiso       1.00
      H203          H  0.5363265  0.9354245  0.9398195    0.00000       Uiso       1.00
      H204          H  0.5112833  0.9192463  0.8821971    0.00000       Uiso       1.00
      C422          C  0.4678768  0.8937929  0.9426323    0.00000       Uiso       1.00
      C423          C  0.4528507  0.9074771  0.9265865    0.00000       Uiso       1.00
      C424          C  0.4634659  0.9121301  0.9162751    0.00000       Uiso       1.00
      C425          C  0.4934645  0.8848619  0.9482360    0.00000       Uiso       1.00
      C426          C  0.5039140  0.8899293  0.9380546    0.00000       Uiso       1.00
      C427          C  0.4891940  0.9034661  0.9215867    0.00000       Uiso       1.00
      H205          H  0.4719661  0.8798725  0.8754723    0.00000       Uiso       1.00
      H206          H  0.5295947  0.8634644  0.9004984    0.00000       Uiso       1.00
      C428          C  0.4819897  0.8809605  0.8308392    0.00000       Uiso       1.00
      C429          C  0.4730550  0.8753626  0.8418940    0.00000       Uiso       1.00
      C430          C  0.4781230  0.8855464  0.8675933    0.00000       Uiso       1.00
      C431          C  0.4956765  0.8970038  0.8455425    0.00000       Uiso       1.00
      C432          C  0.5003284  0.9073188  0.8711219    0.00000       Uiso       1.00
      C433          C  0.4916637  0.9020107  0.8828767    0.00000       Uiso       1.00
      H207          H  0.4516638  0.9230884  0.9043497    0.00000       Uiso       1.00
      H208          H  0.4680806  0.9481317  0.8881735    0.00000       Uiso       1.00
      C434          C  0.5082486  0.8712887  0.9643417    0.00000       Uiso       1.00
      C435          C  0.4978263  0.8666824  0.9747412    0.00000       Uiso       1.00
      C436          C  0.4273835  0.9166267  0.9214196    0.00000       Uiso       1.00
      C437          C  0.4169746  0.9123352  0.9320834    0.00000       Uiso       1.00
      C438          C  0.5847929  0.9200537  0.9523085    0.00000       Uiso       1.00
      C439          C  0.6102216  0.9096352  0.9569160    0.00000       Uiso       1.00
      C440          C  0.5774028  0.8391885  0.9069720    0.00000       Uiso       1.00
      C441          C  0.6027701  0.8287821  0.9112691    0.00000       Uiso       1.00
      C442          C  0.5048273  0.9021686  0.8343905    0.00000       Uiso       1.00
      C443          C  0.5005341  0.8915009  0.8090253    0.00000       Uiso       1.00
      C444          C  0.4903584  0.9892033  0.9844092    0.00000       Uiso       1.00
      C445          C  0.4796936  0.0145689  0.9948147    0.00000       Uiso       1.00
      H209          H  0.5025628  0.9782634  0.9963398    0.00000       Uiso       1.00
      H210          H  0.4839714  0.0225498  0.0144904    0.00000       Uiso       1.00
      H211          H  0.3972973  0.9197471  0.9277983    0.00000       Uiso       1.00
      H212          H  0.4154524  0.9272844  0.9092078    0.00000       Uiso       1.00
      H213          H  0.5279624  0.8642130  0.9689296    0.00000       Uiso       1.00
      H214          H  0.5097613  0.8561378  0.9870456    0.00000       Uiso       1.00
      H215          H  0.6107565  0.8091054  0.9038624    0.00000       Uiso       1.00
      H216          H  0.5664673  0.8272545  0.8963142    0.00000       Uiso       1.00
      H217          H  0.5767436  0.9397649  0.9593832    0.00000       Uiso       1.00
      H218          H  0.6211399  0.9215665  0.9674604    0.00000       Uiso       1.00
      H219          H  0.5079448  0.8957834  0.8010431    0.00000       Uiso       1.00
      H220          H  0.5154830  0.9143824  0.8453286    0.00000       Uiso       1.00
      C446          C  0.8147056  0.8147056  0.6743394    0.00000       Uiso       1.00
      C447          C  0.8021581  0.8381646  0.6870487    0.00000       Uiso       1.00
      C448          C  0.8129365  0.8489403  0.7125320    0.00000       Uiso       1.00
      C449          C  0.8381647  0.8021580  0.6870487    0.00000       Uiso       1.00
      C450          C  0.8490437  0.8129079  0.7124498    0.00000       Uiso       1.00
      C451          C  0.8366472  0.8365251  0.7258582    0.00000       Uiso       1.00
      H221          H  0.8749707  0.1021063  0.9562085    0.00000       Uiso       1.00
      H222          H  0.8486847  0.7830340  0.6769581    0.00000       Uiso       1.00
      H223          H  0.7830341  0.8486847  0.6769581    0.00000       Uiso       1.00
      C452          C  0.8685197  0.1492542  0.0088880    0.00000       Uiso       1.00
      C453          C  0.8703173  0.1365451  0.9854292    0.00000       Uiso       1.00
      C454          C  0.8740896  0.1111440  0.9745499    0.00000       Uiso       1.00
      C455          C  0.8703171  0.1365446  0.0214353    0.00000       Uiso       1.00
      C456          C  0.8742465  0.1110611  0.0106566    0.00000       Uiso       1.00
      C457          C  0.8762775  0.0977362  0.9869466    0.00000       Uiso       1.00
      H224          H  0.8027219  0.8673832  0.9486227    0.00000       Uiso       1.00
      H225          H  0.8688303  0.1466352  0.0405592    0.00000       Uiso       1.00
      H226          H  0.8688308  0.1466359  0.9749094    0.00000       Uiso       1.00
      C458          C  0.1492541  0.8685193  0.0088879    0.00000       Uiso       1.00
      C459          C  0.1365445  0.8703167  0.0214352    0.00000       Uiso       1.00
      C460          C  0.1111430  0.8740920  0.0106871    0.00000       Uiso       1.00
      C461          C  0.1365447  0.8703172  0.9854291    0.00000       Uiso       1.00
      C462          C  0.1110608  0.8742505  0.9746551    0.00000       Uiso       1.00
      C463          C  0.0977343  0.8762836  0.9870723    0.00000       Uiso       1.00
      H227          H  0.8673854  0.8027242  0.7214878    0.00000       Uiso       1.00
      H228          H  0.1466355  0.8688307  0.9749093    0.00000       Uiso       1.00
      H229          H  0.1466351  0.8688300  0.0405590    0.00000       Uiso       1.00
      C464          C  0.8147026  0.8147026  0.9550715    0.00000       Uiso       1.00
      C465          C  0.8381619  0.8021552  0.9532739    0.00000       Uiso       1.00
      C466          C  0.8489379  0.8129341  0.9493452    0.00000       Uiso       1.00
      C467          C  0.8021553  0.8381619  0.9532739    0.00000       Uiso       1.00
      C468          C  0.8129057  0.8490416  0.9495029    0.00000       Uiso       1.00
      C469          C  0.8365231  0.8366452  0.9473157    0.00000       Uiso       1.00
      H230          H  0.1021031  0.8749763  0.0208720    0.00000       Uiso       1.00
      C470          C  0.9117954  0.9117986  0.9117975    0.00000       Uiso       1.00
      H231          H  0.7830312  0.8486817  0.9547604    0.00000       Uiso       1.00
      H232          H  0.8486818  0.7830312  0.9547604    0.00000       Uiso       1.00
      Br21         Br  0.7943991  0.8806107  0.7290090    0.00000       Uiso       1.00
      Br22         Br  0.8806067  0.7943946  0.9459972    0.00000       Uiso       1.00
      Br23         Br  0.8775918  0.0945864  0.0291971    0.00000       Uiso       1.00
      Br24         Br  0.0945912  0.8776014  0.9429882    0.00000       Uiso       1.00
      C471          C  0.8482929  0.8479117  0.7533808    0.00000       Uiso       1.00
      C472          C  0.8433777  0.8735539  0.7647827    0.00000       Uiso       1.00
      C473          C  0.8540601  0.8841621  0.7903613    0.00000       Uiso       1.00
      C474          C  0.8644830  0.8331995  0.7685867    0.00000       Uiso       1.00
      C475          C  0.8754463  0.8435613  0.7941287    0.00000       Uiso       1.00
      C476          C  0.8701977  0.8691266  0.8050858    0.00000       Uiso       1.00
      H233          H  0.8683172  0.8136091  0.7606784    0.00000       Uiso       1.00
      H234          H  0.8314502  0.8853523  0.7537305    0.00000       Uiso       1.00
      C477          C  0.8807685  0.0702151  0.9753004    0.00000       Uiso       1.00
      C478          C  0.8945056  0.0550092  0.9591187    0.00000       Uiso       1.00
      C479          C  0.8987222  0.0294674  0.9481541    0.00000       Uiso       1.00
      C480          C  0.8714333  0.0588141  0.9802045    0.00000       Uiso       1.00
      C481          C  0.8757207  0.0332371  0.9695208    0.00000       Uiso       1.00
      C482          C  0.8893524  0.0185121  0.9533931    0.00000       Uiso       1.00
      H235          H  0.8605011  0.0698621  0.9921226    0.00000       Uiso       1.00
      H236          H  0.9023614  0.0629177  0.9552921    0.00000       Uiso       1.00
      C483          C  0.0702118  0.8807779  0.9756904    0.00000       Uiso       1.00
      C484          C  0.0550079  0.8945062  0.9904059    0.00000       Uiso       1.00
      C485          C  0.0294633  0.8987234  0.9800453    0.00000       Uiso       1.00
      C486          C  0.0588094  0.8714526  0.9500497    0.00000       Uiso       1.00
      C487          C  0.0332325  0.8757415  0.9394442    0.00000       Uiso       1.00
      C488          C  0.0185063  0.8893626  0.9544776    0.00000       Uiso       1.00
      H237          H  0.0698548  0.8605281  0.9382466    0.00000       Uiso       1.00
      H238          H  0.0629250  0.9023527  0.0099991    0.00000       Uiso       1.00
      C489          C  0.8479093  0.8482913  0.9428256    0.00000       Uiso       1.00
      C490          C  0.8735503  0.8433842  0.9521584    0.00000       Uiso       1.00
      C491          C  0.8841587  0.8540648  0.9478685    0.00000       Uiso       1.00
      C492          C  0.8331980  0.8644747  0.9290910    0.00000       Uiso       1.00
      C493          C  0.8435599  0.8754389  0.9248749    0.00000       Uiso       1.00
      C494          C  0.8691239  0.8701956  0.9342395    0.00000       Uiso       1.00
      H239          H  0.8136082  0.8683032  0.9212390    0.00000       Uiso       1.00
      H240          H  0.8853446  0.8314648  0.9630899    0.00000       Uiso       1.00
      C495          C  0.9096325  0.8488623  0.9569281    0.00000       Uiso       1.00
      C496          C  0.9200522  0.8592618  0.9523188    0.00000       Uiso       1.00
      C497          C  0.8666537  0.0220261  0.9747173    0.00000       Uiso       1.00
      C498          C  0.8712595  0.9965991  0.9643155    0.00000       Uiso       1.00
      H241          H  0.8561003  0.0329392  0.9870133    0.00000       Uiso       1.00
      H242          H  0.8641747  0.9885506  0.9688942    0.00000       Uiso       1.00
      H243          H  0.9215643  0.8365654  0.9674796    0.00000       Uiso       1.00
      H244          H  0.9397634  0.8546820  0.9593977    0.00000       Uiso       1.00
      C499          C  0.8809614  0.8796834  0.8308411    0.00000       Uiso       1.00
      C500          C  0.8753600  0.9052688  0.8418949    0.00000       Uiso       1.00
      C501          C  0.8855439  0.9157163  0.8675920    0.00000       Uiso       1.00
      C502          C  0.8970041  0.8646574  0.8455439    0.00000       Uiso       1.00
      C503          C  0.9073151  0.8752703  0.8711225    0.00000       Uiso       1.00
      C504          C  0.9020090  0.9009966  0.8828759    0.00000       Uiso       1.00
      H245          H  0.9231086  0.9413944  0.9043718    0.00000       Uiso       1.00
      H246          H  0.9481279  0.8837844  0.8881710    0.00000       Uiso       1.00
      C505          C  0.8937848  0.9927579  0.9426289    0.00000       Uiso       1.00
      C506          C  0.9074797  0.9780532  0.9265933    0.00000       Uiso       1.00
      C507          C  0.9121335  0.9524735  0.9162803    0.00000       Uiso       1.00
      C508          C  0.8848435  0.9817045  0.9482203    0.00000       Uiso       1.00
      C509          C  0.8899109  0.9560064  0.9380372    0.00000       Uiso       1.00
      C510          C  0.9034612  0.9407207  0.9215823    0.00000       Uiso       1.00
      H247          H  0.8798598  0.9354252  0.8754677    0.00000       Uiso       1.00
      H248          H  0.8634592  0.9192462  0.9005111    0.00000       Uiso       1.00
      C511          C  0.9927533  0.8937930  0.9439167    0.00000       Uiso       1.00
      C512          C  0.9780493  0.9074768  0.9589428    0.00000       Uiso       1.00
      C513          C  0.9524701  0.9121299  0.9483278    0.00000       Uiso       1.00
      C514          C  0.9817004  0.8848622  0.9183291    0.00000       Uiso       1.00
      C515          C  0.9560023  0.8899297  0.9078799    0.00000       Uiso       1.00
      C516          C  0.9407176  0.9034662  0.9225999    0.00000       Uiso       1.00
      H249          H  0.9354250  0.8798719  0.9398281    0.00000       Uiso       1.00
      H250          H  0.9192311  0.8634647  0.8821998    0.00000       Uiso       1.00
      C517          C  0.8796810  0.8809596  0.9298051    0.00000       Uiso       1.00
      C518          C  0.9052681  0.8753617  0.9387396    0.00000       Uiso       1.00
      C519          C  0.9157154  0.8855457  0.9336714    0.00000       Uiso       1.00
      C520          C  0.8646541  0.8970031  0.9161182    0.00000       Uiso       1.00
      C521          C  0.8752664  0.9073185  0.9114661    0.00000       Uiso       1.00
      C522          C  0.9009938  0.9020103  0.9201306    0.00000       Uiso       1.00
      H251          H  0.9413884  0.9230878  0.9601299    0.00000       Uiso       1.00
      H252          H  0.8837523  0.9481311  0.9437134    0.00000       Uiso       1.00
      C523          C  0.9965953  0.8712894  0.9035450    0.00000       Uiso       1.00
      C524          C  0.0220228  0.8666831  0.9139671    0.00000       Uiso       1.00
      C525          C  0.9891998  0.9166262  0.9844097    0.00000       Uiso       1.00
      C526          C  0.0145634  0.9123346  0.9948184    0.00000       Uiso       1.00
      C527          C  0.8592538  0.9200551  0.8270017    0.00000       Uiso       1.00
      C528          C  0.8488512  0.9096370  0.8015733    0.00000       Uiso       1.00
      C529          C  0.9021729  0.8391893  0.8343922    0.00000       Uiso       1.00
      C530          C  0.8915093  0.8287833  0.8090251    0.00000       Uiso       1.00
      C531          C  0.8391867  0.9021679  0.9069676    0.00000       Uiso       1.00
      C532          C  0.8287827  0.8914999  0.9112611    0.00000       Uiso       1.00
      C533          C  0.9166380  0.9892040  0.9214349    0.00000       Uiso       1.00
      C534          C  0.9123425  0.0145696  0.9320996    0.00000       Uiso       1.00
      H253          H  0.9273040  0.9782643  0.9092305    0.00000       Uiso       1.00
      H254          H  0.9197597  0.0225509  0.9278218    0.00000       Uiso       1.00
      H255          H  0.0225438  0.9197462  0.0144953    0.00000       Uiso       1.00
      H256          H  0.9782613  0.9272836  0.9963408    0.00000       Uiso       1.00
      H257          H  0.9885452  0.8642141  0.8838314    0.00000       Uiso       1.00
      H258          H  0.0329368  0.8561388  0.9020321    0.00000       Uiso       1.00
      H259          H  0.8957931  0.8091066  0.8010389    0.00000       Uiso       1.00
      H260          H  0.9143847  0.8272550  0.8453277    0.00000       Uiso       1.00
      H261          H  0.8546662  0.9397663  0.8350508    0.00000       Uiso       1.00
      H262          H  0.8365460  0.9215684  0.7906550    0.00000       Uiso       1.00
      H263          H  0.8091076  0.8957824  0.9038507    0.00000       Uiso       1.00
      H264          H  0.8272554  0.9143819  0.8963120    0.00000       Uiso       1.00
        N1          N  0.7773619  0.4564416  0.5993672    0.00000       Uiso       1.00
      C535          C  0.8010606  0.4564504  0.6107396    0.00000       Uiso       1.00
      C536          C  0.8010604  0.4564500  0.6467736    0.00000       Uiso       1.00
        N2          N  0.8124329  0.4564412  0.6344382    0.00000       Uiso       1.00
        N3          N  0.7773617  0.4564412  0.6344382    0.00000       Uiso       1.00
      C537          C  0.7650265  0.4564504  0.6107396    0.00000       Uiso       1.00
        N4          N  0.4564414  0.7773613  0.6344387    0.00000       Uiso       1.00
      C538          C  0.4564502  0.8010601  0.6467739    0.00000       Uiso       1.00
      C539          C  0.4564506  0.8010607  0.6107401    0.00000       Uiso       1.00
        N5          N  0.4564414  0.8124328  0.6344387    0.00000       Uiso       1.00
        N6          N  0.4564418  0.7773619  0.5993678    0.00000       Uiso       1.00
      C540          C  0.4564506  0.7650263  0.6107401    0.00000       Uiso       1.00
      C541          C  0.3629359  0.3831252  0.5477548    0.00000       Uiso       1.00
      C542          C  0.3421032  0.3842275  0.5490102    0.00000       Uiso       1.00
      C543          C  0.3221083  0.4059952  0.5514502    0.00000       Uiso       1.00
      C544          C  0.3009210  0.4064307  0.5514392    0.00000       Uiso       1.00
      C545          C  0.2986986  0.3847499  0.5475975    0.00000       Uiso       1.00
      C546          C  0.3189422  0.3629341  0.5448048    0.00000       Uiso       1.00
      C547          C  0.3412865  0.3626002  0.5472065    0.00000       Uiso       1.00
        O1          O  0.3662788  0.4023139  0.5482810    0.00000       Uiso       1.00
      H265          H  0.3229991  0.4227078  0.5533895    0.00000       Uiso       1.00
      H266          H  0.2863389  0.4238614  0.5541984    0.00000       Uiso       1.00
      H267          H  0.3168415  0.3457733  0.5391777    0.00000       Uiso       1.00
      C548          C  0.3831291  0.2135253  0.5478193    0.00000       Uiso       1.00
      C549          C  0.3842342  0.2345174  0.5490893    0.00000       Uiso       1.00
      C550          C  0.4059970  0.2351851  0.5515171    0.00000       Uiso       1.00
      C551          C  0.4064261  0.2559259  0.5514990    0.00000       Uiso       1.00
      C552          C  0.3847432  0.2759846  0.5476558    0.00000       Uiso       1.00
      C553          C  0.3629354  0.2747660  0.5448873    0.00000       Uiso       1.00
      C554          C  0.3626096  0.2551589  0.5472993    0.00000       Uiso       1.00
        O2          O  0.4023116  0.1915104  0.5483124    0.00000       Uiso       1.00
      H268          H  0.4227085  0.2195192  0.5534404    0.00000       Uiso       1.00
      H269          H  0.4238540  0.2558323  0.5542461    0.00000       Uiso       1.00
      H270          H  0.3457700  0.2883928  0.5392621    0.00000       Uiso       1.00
      C555          C  0.2135126  0.3629655  0.5477971    0.00000       Uiso       1.00
      C556          C  0.2345083  0.3421485  0.5490860    0.00000       Uiso       1.00
      C557          C  0.2351796  0.3221648  0.5515479    0.00000       Uiso       1.00
      C558          C  0.2559286  0.3009833  0.5515603    0.00000       Uiso       1.00
      C559          C  0.2759931  0.2987581  0.5477206    0.00000       Uiso       1.00
      C560          C  0.2747723  0.3189991  0.5449191    0.00000       Uiso       1.00
      C561          C  0.2551499  0.3413351  0.5472896    0.00000       Uiso       1.00
        O3          O  0.1915087  0.3663012  0.5483191    0.00000       Uiso       1.00
      H271          H  0.2195047  0.3230599  0.5534739    0.00000       Uiso       1.00
      H272          H  0.2558385  0.2864046  0.5543253    0.00000       Uiso       1.00
      H273          H  0.2884123  0.3169002  0.5393007    0.00000       Uiso       1.00
      C562          C  0.2125153  0.3822244  0.5446226    0.00000       Uiso       1.00
      C563          C  0.2329242  0.3826847  0.5440410    0.00000       Uiso       1.00
      C564          C  0.2319974  0.4026844  0.5413831    0.00000       Uiso       1.00
      C565          C  0.2528958  0.4032055  0.5417752    0.00000       Uiso       1.00
      C566          C  0.2756129  0.3843488  0.5462504    0.00000       Uiso       1.00
      C567          C  0.2762475  0.3646359  0.5494353    0.00000       Uiso       1.00
      C568          C  0.2549356  0.3625362  0.5465865    0.00000       Uiso       1.00
        O4          O  0.1897828  0.4005787  0.5428129    0.00000       Uiso       1.00
      H274          H  0.2149388  0.4178975  0.5389044    0.00000       Uiso       1.00
      H275          H  0.2509836  0.4186207  0.5387408    0.00000       Uiso       1.00
      H276          H  0.2936489  0.3515148  0.5555839    0.00000       Uiso       1.00
      C569          C  0.3617012  0.2125427  0.5446867    0.00000       Uiso       1.00
      C570          C  0.3402577  0.2329601  0.5441279    0.00000       Uiso       1.00
      C571          C  0.3185380  0.2320539  0.5415227    0.00000       Uiso       1.00
      C572          C  0.2975192  0.2529592  0.5419311    0.00000       Uiso       1.00
      C573          C  0.2981280  0.2756658  0.5463653    0.00000       Uiso       1.00
      C574          C  0.3203821  0.2762791  0.5495010    0.00000       Uiso       1.00
      C575          C  0.3409345  0.2549596  0.5466398    0.00000       Uiso       1.00
        O5          O  0.3642703  0.1898135  0.5428844    0.00000       Uiso       1.00
      H277          H  0.3179030  0.2150019  0.5390613    0.00000       Uiso       1.00
      H278          H  0.2809913  0.2510551  0.5389333    0.00000       Uiso       1.00
      H279          H  0.3222621  0.2936704  0.5556317    0.00000       Uiso       1.00
      C576          C  0.3822119  0.3616939  0.5446199    0.00000       Uiso       1.00
      C577          C  0.3826686  0.3402491  0.5440448    0.00000       Uiso       1.00
      C578          C  0.4026925  0.3185342  0.5414467    0.00000       Uiso       1.00
      C579          C  0.4032195  0.2975149  0.5418586    0.00000       Uiso       1.00
      C580          C  0.3843315  0.2981171  0.5462800    0.00000       Uiso       1.00
      C581          C  0.3645882  0.3203670  0.5493982    0.00000       Uiso       1.00
      C582          C  0.3624979  0.3409221  0.5465429    0.00000       Uiso       1.00
        O6          O  0.4005848  0.3642646  0.5428444    0.00000       Uiso       1.00
      H280          H  0.4179198  0.3179086  0.5389950    0.00000       Uiso       1.00
      H281          H  0.4186643  0.2809942  0.5388767    0.00000       Uiso       1.00
      H282          H  0.3514383  0.3222427  0.5555167    0.00000       Uiso       1.00
        B1          B  0.3902545  0.3901212  0.5451568    0.00000       Uiso       1.00
        B2          B  0.3901215  0.1765942  0.5451754    0.00000       Uiso       1.00
        B3          B  0.1765816  0.3902564  0.5451524    0.00000       Uiso       1.00
      C583          C  0.3831290  0.3629391  0.1983124    0.00000       Uiso       1.00
      C584          C  0.3842316  0.3421068  0.1773270    0.00000       Uiso       1.00
      C585          C  0.4059994  0.3221118  0.1766598    0.00000       Uiso       1.00
      C586          C  0.4064350  0.3009248  0.1559191    0.00000       Uiso       1.00
      C587          C  0.3847544  0.2987025  0.1358579    0.00000       Uiso       1.00
      C588          C  0.3629386  0.3189461  0.1370783    0.00000       Uiso       1.00
      C589          C  0.3626045  0.3412902  0.1566868    0.00000       Uiso       1.00
        O7          O  0.4023175  0.3662818  0.2203176    0.00000       Uiso       1.00
      H283          H  0.4227118  0.3230025  0.1923238    0.00000       Uiso       1.00
      H284          H  0.4238658  0.2863427  0.1560087    0.00000       Uiso       1.00
      H285          H  0.3457778  0.3168454  0.1234439    0.00000       Uiso       1.00
      C590          C  0.2135307  0.3831339  0.0488428    0.00000       Uiso       1.00
      C591          C  0.2345226  0.3842388  0.0696698    0.00000       Uiso       1.00
      C592          C  0.2351901  0.4060014  0.0896723    0.00000       Uiso       1.00
      C593          C  0.2559307  0.4064303  0.1108601    0.00000       Uiso       1.00
      C594          C  0.2759894  0.3847473  0.1130791    0.00000       Uiso       1.00
      C595          C  0.2747709  0.3629397  0.0928213    0.00000       Uiso       1.00
      C596          C  0.2551641  0.3626142  0.0704768    0.00000       Uiso       1.00
        O8          O  0.1915159  0.4023165  0.0455174    0.00000       Uiso       1.00
      H286          H  0.2195242  0.4227129  0.0887946    0.00000       Uiso       1.00
      H287          H  0.2558370  0.4238580  0.1254473    0.00000       Uiso       1.00
      H288          H  0.2883976  0.3457743  0.0949079    0.00000       Uiso       1.00
      C597          C  0.3629712  0.2135177  0.0286890    0.00000       Uiso       1.00
      C598          C  0.3421542  0.2345134  0.0275788    0.00000       Uiso       1.00
      C599          C  0.3221708  0.2351849  0.0058047    0.00000       Uiso       1.00
      C600          C  0.3009893  0.2559339  0.0053599    0.00000       Uiso       1.00
      C601          C  0.2987638  0.2759982  0.0270387    0.00000       Uiso       1.00
      C602          C  0.3190045  0.2747771  0.0488600    0.00000       Uiso       1.00
      C603          C  0.3413405  0.2551548  0.0492032    0.00000       Uiso       1.00
        O9          O  0.3663071  0.1915140  0.0094991    0.00000       Uiso       1.00
      H289          H  0.3230659  0.2195103  0.9890994    0.00000       Uiso       1.00
      H290          H  0.2864106  0.2558441  0.9879265    0.00000       Uiso       1.00
      H291          H  0.3169054  0.2884169  0.0660193    0.00000       Uiso       1.00
      C604          C  0.3822298  0.2125201  0.0501248    0.00000       Uiso       1.00
      C605          C  0.3826899  0.2329288  0.0715755    0.00000       Uiso       1.00
      C606          C  0.4026893  0.2320017  0.0933058    0.00000       Uiso       1.00
      C607          C  0.4032102  0.2528999  0.1143331    0.00000       Uiso       1.00
      C608          C  0.3843535  0.2756170  0.1137183    0.00000       Uiso       1.00
      C609          C  0.3646409  0.2762519  0.0914555    0.00000       Uiso       1.00
      C610          C  0.3625414  0.2549402  0.0708929    0.00000       Uiso       1.00
       O10          O  0.4005842  0.1897876  0.0475563    0.00000       Uiso       1.00
      H292          H  0.4179024  0.2149431  0.0939391    0.00000       Uiso       1.00
      H293          H  0.4186252  0.2509874  0.1308703    0.00000       Uiso       1.00
      H294          H  0.3515199  0.2936534  0.0895873    0.00000       Uiso       1.00
      C611          C  0.2125483  0.3617061  0.0295650    0.00000       Uiso       1.00
      C612          C  0.2329658  0.3402627  0.0290979    0.00000       Uiso       1.00
      C613          C  0.2320597  0.3185432  0.0090774    0.00000       Uiso       1.00
      C614          C  0.2529651  0.2975244  0.0085555    0.00000       Uiso       1.00
      C615          C  0.2756714  0.2981330  0.0274366    0.00000       Uiso       1.00
      C616          C  0.2762846  0.3203869  0.0471681    0.00000       Uiso       1.00
      C617          C  0.2549650  0.3409393  0.0492620    0.00000       Uiso       1.00
       O11          O  0.1898193  0.3642755  0.0112075    0.00000       Uiso       1.00
      H295          H  0.2150076  0.3179084  0.9938521    0.00000       Uiso       1.00
      H296          H  0.2510609  0.2809967  0.9931216    0.00000       Uiso       1.00
      H297          H  0.2936759  0.3222669  0.0603087    0.00000       Uiso       1.00
      C618          C  0.3616977  0.3822151  0.1992920    0.00000       Uiso       1.00
      C619          C  0.3402531  0.3826720  0.1788793    0.00000       Uiso       1.00
      C620          C  0.3185382  0.4026959  0.1797863    0.00000       Uiso       1.00
      C621          C  0.2975191  0.4032231  0.1588824    0.00000       Uiso       1.00
      C622          C  0.2981216  0.3843354  0.1361755    0.00000       Uiso       1.00
      C623          C  0.3203715  0.3645921  0.1355638    0.00000       Uiso       1.00
      C624          C  0.3409264  0.3625016  0.1568838    0.00000       Uiso       1.00
       O12          O  0.3642682  0.4005877  0.2220109    0.00000       Uiso       1.00
      H298          H  0.3179124  0.4179230  0.1968396    0.00000       Uiso       1.00
      H299          H  0.2809983  0.4186679  0.1607883    0.00000       Uiso       1.00
      H300          H  0.3222475  0.3514424  0.1181714    0.00000       Uiso       1.00
        B4          B  0.3901246  0.3902574  0.2352247    0.00000       Uiso       1.00
        B5          B  0.1765999  0.3901266  0.0215484    0.00000       Uiso       1.00
        B6          B  0.3902621  0.1765867  0.0216937    0.00000       Uiso       1.00
        N7          N  0.8124297  0.7773580  0.9553552    0.00000       Uiso       1.00
      C625          C  0.8010573  0.8010568  0.9553463    0.00000       Uiso       1.00
      C626          C  0.7650229  0.8010570  0.9553463    0.00000       Uiso       1.00
        N8          N  0.7773584  0.8124294  0.9553552    0.00000       Uiso       1.00
        N9          N  0.7773584  0.7773581  0.9553552    0.00000       Uiso       1.00
      C627          C  0.8010573  0.7650227  0.9553463    0.00000       Uiso       1.00
      C628          C  0.8640422  0.3629303  0.0286712    0.00000       Uiso       1.00
      C629          C  0.8627867  0.3420977  0.0275689    0.00000       Uiso       1.00
      C630          C  0.8603470  0.3221030  0.0058014    0.00000       Uiso       1.00
      C631          C  0.8603580  0.3009157  0.0053659    0.00000       Uiso       1.00
      C632          C  0.8641996  0.2986930  0.0270465    0.00000       Uiso       1.00
      C633          C  0.8669920  0.3189363  0.0488621    0.00000       Uiso       1.00
      C634          C  0.8645902  0.3412807  0.0491960    0.00000       Uiso       1.00
       O13          O  0.8635162  0.3662734  0.0094827    0.00000       Uiso       1.00
      H301          H  0.8584076  0.3229941  0.9890891    0.00000       Uiso       1.00
      H302          H  0.8575987  0.2863339  0.9879355    0.00000       Uiso       1.00
      H303          H  0.8726190  0.3168353  0.0660228    0.00000       Uiso       1.00
      C635          C  0.8639758  0.3831217  0.1982693    0.00000       Uiso       1.00
      C636          C  0.8627061  0.3842270  0.1772774    0.00000       Uiso       1.00
      C637          C  0.8602782  0.4059898  0.1766097    0.00000       Uiso       1.00
      C638          C  0.8602967  0.4064191  0.1558691    0.00000       Uiso       1.00
      C639          C  0.8641401  0.3847364  0.1358106    0.00000       Uiso       1.00
      C640          C  0.8669086  0.3629285  0.1370293    0.00000       Uiso       1.00
      C641          C  0.8644964  0.3626026  0.1566361    0.00000       Uiso       1.00
       O14          O  0.8634826  0.4023039  0.2202839    0.00000       Uiso       1.00
      H304          H  0.8583548  0.4227011  0.1922754    0.00000       Uiso       1.00
      H305          H  0.8575496  0.4238470  0.1559626    0.00000       Uiso       1.00
      H306          H  0.8725340  0.3457633  0.1234027    0.00000       Uiso       1.00
      C642          C  0.8639997  0.2135068  0.0488307    0.00000       Uiso       1.00
      C643          C  0.8627106  0.2345022  0.0696474    0.00000       Uiso       1.00
      C644          C  0.8602484  0.2351733  0.0896309    0.00000       Uiso       1.00
      C645          C  0.8602358  0.2559221  0.1108121    0.00000       Uiso       1.00
      C646          C  0.8640756  0.2759866  0.1130373    0.00000       Uiso       1.00
      C647          C  0.8668773  0.2747659  0.0927967    0.00000       Uiso       1.00
      C648          C  0.8645071  0.2551438  0.0704609    0.00000       Uiso       1.00
       O15          O  0.8634778  0.1915029  0.0454949    0.00000       Uiso       1.00
      H307          H  0.8583224  0.2194984  0.0887358    0.00000       Uiso       1.00
      H308          H  0.8574707  0.2558318  0.1253906    0.00000       Uiso       1.00
      H309          H  0.8724957  0.2884059  0.0948956    0.00000       Uiso       1.00
      C649          C  0.8671745  0.2125097  0.0295720    0.00000       Uiso       1.00
      C650          C  0.8677561  0.2329185  0.0291117    0.00000       Uiso       1.00
      C651          C  0.8704141  0.2319919  0.0091123    0.00000       Uiso       1.00
      C652          C  0.8700221  0.2528903  0.0085912    0.00000       Uiso       1.00
      C653          C  0.8655466  0.2756072  0.0274476    0.00000       Uiso       1.00
      C654          C  0.8623614  0.2762417  0.0471603    0.00000       Uiso       1.00
      C655          C  0.8652104  0.2549297  0.0492600    0.00000       Uiso       1.00
       O16          O  0.8689844  0.1897773  0.0112179    0.00000       Uiso       1.00
      H310          H  0.8728929  0.2149335  0.9938996    0.00000       Uiso       1.00
      H311          H  0.8730565  0.2509783  0.9931764    0.00000       Uiso       1.00
      H312          H  0.8562127  0.2936431  0.0602811    0.00000       Uiso       1.00
      C656          C  0.8671085  0.3616937  0.1992519    0.00000       Uiso       1.00
      C657          C  0.8676676  0.3402504  0.1788347    0.00000       Uiso       1.00
      C658          C  0.8702728  0.3185307  0.1797410    0.00000       Uiso       1.00
      C659          C  0.8698646  0.2975121  0.1588358    0.00000       Uiso       1.00
      C660          C  0.8654307  0.2981212  0.1361295    0.00000       Uiso       1.00
      C661          C  0.8622949  0.3203754  0.1355161    0.00000       Uiso       1.00
      C662          C  0.8651559  0.3409275  0.1568355    0.00000       Uiso       1.00
       O17          O  0.8689106  0.3642626  0.2219809    0.00000       Uiso       1.00
      H313          H  0.8727340  0.3178955  0.1967928    0.00000       Uiso       1.00
      H314          H  0.8728623  0.2809842  0.1607400    0.00000       Uiso       1.00
      H315          H  0.8561643  0.3222556  0.1181249    0.00000       Uiso       1.00
      C663          C  0.8671770  0.3822060  0.0501023    0.00000       Uiso       1.00
      C664          C  0.8677518  0.3826625  0.0715469    0.00000       Uiso       1.00
      C665          C  0.8703497  0.4026861  0.0932616    0.00000       Uiso       1.00
      C666          C  0.8699376  0.4032129  0.1142806    0.00000       Uiso       1.00
      C667          C  0.8655161  0.3843250  0.1136784    0.00000       Uiso       1.00
      C668          C  0.8623980  0.3645819  0.0914287    0.00000       Uiso       1.00
      C669          C  0.8652536  0.3624919  0.0708738    0.00000       Uiso       1.00
       O18          O  0.8689525  0.4005789  0.0475316    0.00000       Uiso       1.00
      H316          H  0.8728015  0.4179134  0.0938872    0.00000       Uiso       1.00
      H317          H  0.8729193  0.4186575  0.1308012    0.00000       Uiso       1.00
      H318          H  0.8562796  0.3514321  0.0895530    0.00000       Uiso       1.00
        B7          B  0.8666403  0.3902490  0.0216753    0.00000       Uiso       1.00
        B8          B  0.8666195  0.3901137  0.2352000    0.00000       Uiso       1.00
        B9          B  0.8666447  0.1765760  0.0215401    0.00000       Uiso       1.00
       N10          N  0.7773617  0.7773618  0.5993672    0.00000       Uiso       1.00
      C670          C  0.7650262  0.8010605  0.6107396    0.00000       Uiso       1.00
      C671          C  0.8010600  0.8010603  0.6467736    0.00000       Uiso       1.00
       N11          N  0.7773613  0.8124328  0.6344382    0.00000       Uiso       1.00
       N12          N  0.8124326  0.7773616  0.6344383    0.00000       Uiso       1.00
      C672          C  0.8010603  0.7650264  0.6107396    0.00000       Uiso       1.00
      C673          C  0.3629393  0.8640506  0.1983124    0.00000       Uiso       1.00
      C674          C  0.3421069  0.8627954  0.1773270    0.00000       Uiso       1.00
      C675          C  0.3221120  0.8603554  0.1766599    0.00000       Uiso       1.00
      C676          C  0.3009249  0.8603666  0.1559191    0.00000       Uiso       1.00
      C677          C  0.2987027  0.8642086  0.1358580    0.00000       Uiso       1.00
      C678          C  0.3189462  0.8670014  0.1370783    0.00000       Uiso       1.00
      C679          C  0.3412904  0.8645993  0.1566868    0.00000       Uiso       1.00
       O19          O  0.3662820  0.8635241  0.2203176    0.00000       Uiso       1.00
      H319          H  0.3230027  0.8584159  0.1923238    0.00000       Uiso       1.00
      H320          H  0.2863428  0.8576074  0.1560087    0.00000       Uiso       1.00
      H321          H  0.3168456  0.8726286  0.1234439    0.00000       Uiso       1.00
      C680          C  0.3831341  0.8639877  0.0488428    0.00000       Uiso       1.00
      C681          C  0.3842390  0.8627174  0.0696698    0.00000       Uiso       1.00
      C682          C  0.4060016  0.8602894  0.0896723    0.00000       Uiso       1.00
      C683          C  0.4064305  0.8603073  0.1108601    0.00000       Uiso       1.00
      C684          C  0.3847475  0.8641506  0.1130791    0.00000       Uiso       1.00
      C685          C  0.3629398  0.8669193  0.0928213    0.00000       Uiso       1.00
      C686          C  0.3626144  0.8645076  0.0704768    0.00000       Uiso       1.00
       O20          O  0.4023166  0.8634946  0.0455174    0.00000       Uiso       1.00
      H322          H  0.4227130  0.8583661  0.0887946    0.00000       Uiso       1.00
      H323          H  0.4238582  0.8575601  0.1254473    0.00000       Uiso       1.00
      H324          H  0.3457744  0.8725446  0.0949080    0.00000       Uiso       1.00
      C687          C  0.2135178  0.8640101  0.0286890    0.00000       Uiso       1.00
      C688          C  0.2345135  0.8627211  0.0275788    0.00000       Uiso       1.00
      C689          C  0.2351850  0.8602595  0.0058047    0.00000       Uiso       1.00
      C690          C  0.2559341  0.8602471  0.0053599    0.00000       Uiso       1.00
      C691          C  0.2759983  0.8640867  0.0270387    0.00000       Uiso       1.00
      C692          C  0.2747772  0.8668879  0.0488600    0.00000       Uiso       1.00
      C693          C  0.2551549  0.8645175  0.0492033    0.00000       Uiso       1.00
       O21          O  0.1915141  0.8634883  0.0094991    0.00000       Uiso       1.00
      H325          H  0.2195102  0.8583337  0.9890994    0.00000       Uiso       1.00
      H326          H  0.2558440  0.8574824  0.9879266    0.00000       Uiso       1.00
      H327          H  0.2884170  0.8725062  0.0660193    0.00000       Uiso       1.00
      C694          C  0.2125203  0.8671844  0.0501249    0.00000       Uiso       1.00
      C695          C  0.2329290  0.8677658  0.0715755    0.00000       Uiso       1.00
      C696          C  0.2320018  0.8704234  0.0933059    0.00000       Uiso       1.00
      C697          C  0.2529001  0.8700312  0.1143331    0.00000       Uiso       1.00
      C698          C  0.2756172  0.8655559  0.1137184    0.00000       Uiso       1.00
      C699          C  0.2762521  0.8623712  0.0914555    0.00000       Uiso       1.00
      C700          C  0.2549404  0.8652204  0.0708929    0.00000       Uiso       1.00
       O22          O  0.1897877  0.8689942  0.0475564    0.00000       Uiso       1.00
      H328          H  0.2149432  0.8729023  0.0939392    0.00000       Uiso       1.00
      H329          H  0.2509876  0.8730654  0.1308703    0.00000       Uiso       1.00
      H330          H  0.2936536  0.8562226  0.0895873    0.00000       Uiso       1.00
      C701          C  0.3617063  0.8671205  0.0295650    0.00000       Uiso       1.00
      C702          C  0.3402628  0.8676794  0.0290979    0.00000       Uiso       1.00
      C703          C  0.3185434  0.8702848  0.0090774    0.00000       Uiso       1.00
      C704          C  0.2975246  0.8698764  0.0085555    0.00000       Uiso       1.00
      C705          C  0.2981332  0.8654420  0.0274366    0.00000       Uiso       1.00
      C706          C  0.3203871  0.8623060  0.0471681    0.00000       Uiso       1.00
      C707          C  0.3409394  0.8651672  0.0492620    0.00000       Uiso       1.00
       O23          O  0.3642756  0.8689230  0.0112075    0.00000       Uiso       1.00
      H331          H  0.3179083  0.8727465  0.9938521    0.00000       Uiso       1.00
      H332          H  0.2809966  0.8728744  0.9931216    0.00000       Uiso       1.00
      H333          H  0.3222671  0.8561751  0.0603087    0.00000       Uiso       1.00
      C708          C  0.3822152  0.8671856  0.1992921    0.00000       Uiso       1.00
      C709          C  0.3826722  0.8677609  0.1788793    0.00000       Uiso       1.00
      C710          C  0.4026960  0.8703590  0.1797863    0.00000       Uiso       1.00
      C711          C  0.4032232  0.8699473  0.1588824    0.00000       Uiso       1.00
      C712          C  0.3843356  0.8655261  0.1361755    0.00000       Uiso       1.00
      C713          C  0.3645923  0.8624078  0.1355638    0.00000       Uiso       1.00
      C714          C  0.3625018  0.8652630  0.1568838    0.00000       Uiso       1.00
       O24          O  0.4005879  0.8689609  0.2220109    0.00000       Uiso       1.00
      H334          H  0.4179232  0.8728105  0.1968396    0.00000       Uiso       1.00
      H335          H  0.4186681  0.8729293  0.1607884    0.00000       Uiso       1.00
      H336          H  0.3514426  0.8562895  0.1181714    0.00000       Uiso       1.00
       B10          B  0.3902575  0.8666483  0.2352247    0.00000       Uiso       1.00
       B11          B  0.3901267  0.8666320  0.0215484    0.00000       Uiso       1.00
       B12          B  0.1765869  0.8666549  0.0216937    0.00000       Uiso       1.00
