data_8
_audit_creation_date              0000-00-00
_audit_creation_method            'LanYouShi'
_symmetry_space_group_name_H-M    'P1'
_cell_length_a                    68.7341995
_cell_length_b                    59.5264015
_cell_length_c                    59.5264015
_cell_angle_alpha                 70.5292969
_cell_angle_beta                  54.7364998
_cell_angle_gamma                 54.7363014
loop_
_atom_site_label
_atom_site_type_symbol
_atom_site_fract_x
_atom_site_fract_y
_atom_site_fract_z
_atom_site_U_iso_or_equiv
_atom_site_adp_type
_atom_site_occupancy
        C1          C  0.4999999  0.4999996  0.4999997    0.00000       Uiso       1.00
        C2          C  0.3707525  0.5482125  0.6086897    0.00000       Uiso       1.00
        C3          C  0.3805872  0.5539129  0.5801722    0.00000       Uiso       1.00
        C4          C  0.3615060  0.5723084  0.5707877    0.00000       Uiso       1.00
        C5          C  0.3329296  0.5851406  0.5897183    0.00000       Uiso       1.00
        C6          C  0.3230948  0.5796883  0.6182882    0.00000       Uiso       1.00
        C7          C  0.3421695  0.5611427  0.6276661    0.00000       Uiso       1.00
        H1          H  0.3350513  0.5564936  0.6496208    0.00000       Uiso       1.00
        H2          H  0.3687483  0.5767224  0.5487939    0.00000       Uiso       1.00
        H3          H  0.3185827  0.5993240  0.5819861    0.00000       Uiso       1.00
        C8          C  0.5654988  0.4198263  0.5539141    0.00000       Uiso       1.00
        C9          C  0.5810339  0.3913087  0.5482140    0.00000       Uiso       1.00
       C10          C  0.5661848  0.4292106  0.5723096    0.00000       Uiso       1.00
       C11          C  0.5819290  0.4102798  0.5851421    0.00000       Uiso       1.00
       C12          C  0.5972160  0.3817099  0.5796900    0.00000       Uiso       1.00
       C13          C  0.5966868  0.3723321  0.5611444    0.00000       Uiso       1.00
        H4          H  0.6084540  0.3503774  0.5564953    0.00000       Uiso       1.00
        H5          H  0.5545286  0.4512045  0.5767235    0.00000       Uiso       1.00
        H6          H  0.5820924  0.4180118  0.5993256    0.00000       Uiso       1.00
       C14          C  0.5146740  0.4460858  0.4198262    0.00000       Uiso       1.00
       C15          C  0.5276564  0.4517862  0.3913087    0.00000       Uiso       1.00
       C16          C  0.5046039  0.4276903  0.4292105    0.00000       Uiso       1.00
       C17          C  0.5077904  0.4148580  0.4102795    0.00000       Uiso       1.00
       C18          C  0.5210732  0.4203102  0.3817098    0.00000       Uiso       1.00
       C19          C  0.5309801  0.4388559  0.3723321    0.00000       Uiso       1.00
        H7          H  0.5411676  0.4435051  0.3503774    0.00000       Uiso       1.00
        H8          H  0.4942663  0.4232762  0.4512043    0.00000       Uiso       1.00
        H9          H  0.4998950  0.4006744  0.4180116    0.00000       Uiso       1.00
       C20          C  0.5392393  0.5801734  0.4460862    0.00000       Uiso       1.00
       C21          C  0.5205565  0.6086909  0.4517863    0.00000       Uiso       1.00
       C22          C  0.5677048  0.5707892  0.4276910    0.00000       Uiso       1.00
       C23          C  0.5773506  0.5897201  0.4148587    0.00000       Uiso       1.00
       C24          C  0.5586156  0.6182899  0.4203107    0.00000       Uiso       1.00
       C25          C  0.5301631  0.6276676  0.4388562    0.00000       Uiso       1.00
       H10          H  0.5153266  0.6496223  0.4435052    0.00000       Uiso       1.00
       H11          H  0.5824564  0.5487953  0.4232771    0.00000       Uiso       1.00
       H12          H  0.5994294  0.5819881  0.4006754    0.00000       Uiso       1.00
        F1          F  0.5813365  0.3807407  0.5285124    0.00000       Uiso       1.00
        F2          F  0.5379218  0.4714878  0.3807408    0.00000       Uiso       1.00
        F3          F  0.4905898  0.6192588  0.4714876    0.00000       Uiso       1.00
        F4          F  0.3901514  0.5285111  0.6192579    0.00000       Uiso       1.00
       C26          C  0.4563607  0.4991054  0.5419636    0.00000       Uiso       1.00
       C27          C  0.4684643  0.5143185  0.5207728    0.00000       Uiso       1.00
       C28          C  0.4504152  0.5422037  0.5180013    0.00000       Uiso       1.00
       C29          C  0.4222308  0.5550014  0.5373835    0.00000       Uiso       1.00
       C30          C  0.4107844  0.5401716  0.5597122    0.00000       Uiso       1.00
       C31          C  0.4281670  0.5119218  0.5615060    0.00000       Uiso       1.00
       H13          H  0.4689675  0.4772077  0.5437000    0.00000       Uiso       1.00
       H14          H  0.4198248  0.4996110  0.5777269    0.00000       Uiso       1.00
       H15          H  0.4580235  0.5543432  0.5008197    0.00000       Uiso       1.00
       C32          C  0.5172165  0.4792264  0.5143188    0.00000       Uiso       1.00
       C33          C  0.5445331  0.4580353  0.4991060    0.00000       Uiso       1.00
       C34          C  0.5073805  0.4819977  0.5422040    0.00000       Uiso       1.00
       C35          C  0.5227672  0.4626153  0.5550019    0.00000       Uiso       1.00
       C36          C  0.5490431  0.4402865  0.5401725    0.00000       Uiso       1.00
       C37          C  0.5599102  0.4384927  0.5119228    0.00000       Uiso       1.00
       H16          H  0.5538238  0.4562990  0.4772084    0.00000       Uiso       1.00
       H17          H  0.5805630  0.4222718  0.4996122    0.00000       Uiso       1.00
       H18          H  0.4876328  0.4991793  0.5543433    0.00000       Uiso       1.00
       C38          C  0.5035563  0.4856807  0.4792264    0.00000       Uiso       1.00
       C39          C  0.4974307  0.5008937  0.4580353    0.00000       Uiso       1.00
       C40          C  0.5106212  0.4577954  0.4819978    0.00000       Uiso       1.00
       C41          C  0.5146167  0.4449976  0.4626154    0.00000       Uiso       1.00
       C42          C  0.5106695  0.4598273  0.4402865    0.00000       Uiso       1.00
       C43          C  0.5015962  0.4880771  0.4384927    0.00000       Uiso       1.00
       H19          H  0.4898765  0.5227914  0.4562988    0.00000       Uiso       1.00
       H20          H  0.4971644  0.5003878  0.4222715    0.00000       Uiso       1.00
       H21          H  0.5131873  0.4456558  0.4991795    0.00000       Uiso       1.00
       C44          C  0.5107623  0.5207729  0.4856808    0.00000       Uiso       1.00
       C45          C  0.5016750  0.5419639  0.5008938    0.00000       Uiso       1.00
       C46          C  0.5315826  0.5180017  0.4577956    0.00000       Uiso       1.00
       C47          C  0.5403848  0.5373842  0.4449980    0.00000       Uiso       1.00
       C48          C  0.5295023  0.5597131  0.4598275    0.00000       Uiso       1.00
       C49          C  0.5103260  0.5615066  0.4880773    0.00000       Uiso       1.00
       H22          H  0.4873317  0.5437002  0.5227914    0.00000       Uiso       1.00
       H23          H  0.5024473  0.5777276  0.5003879    0.00000       Uiso       1.00
       H24          H  0.5411559  0.5008200  0.4456563    0.00000       Uiso       1.00
        F5          F  0.5106603  0.4659225  0.5848206    0.00000       Uiso       1.00
        F6          F  0.5234167  0.4151788  0.4659225    0.00000       Uiso       1.00
        F7          F  0.5614035  0.5340771  0.4151793    0.00000       Uiso       1.00
        F8          F  0.4045191  0.5848201  0.5340762    0.00000       Uiso       1.00
       C50          C  0.8749899  0.8750008  0.6250080    0.00000       Uiso       1.00
       C51          C  0.7662958  0.8544477  0.7060425    0.00000       Uiso       1.00
       C52          C  0.7948133  0.8357645  0.6905078    0.00000       Uiso       1.00
       C53          C  0.8041969  0.8072992  0.6911940    0.00000       Uiso       1.00
       C54          C  0.7852653  0.7976543  0.7069384    0.00000       Uiso       1.00
       C55          C  0.7566954  0.8163897  0.7222251    0.00000       Uiso       1.00
       C56          C  0.7473185  0.8448420  0.7216955    0.00000       Uiso       1.00
       H25          H  0.7253638  0.8596788  0.7334625    0.00000       Uiso       1.00
       H26          H  0.8261908  0.7925473  0.6795381    0.00000       Uiso       1.00
       H27          H  0.7929968  0.7755756  0.7071022    0.00000       Uiso       1.00
       C57          C  0.8210793  0.9944128  0.6396801    0.00000       Uiso       1.00
       C58          C  0.8267806  0.0042484  0.6526621    0.00000       Uiso       1.00
       C59          C  0.8026838  0.0134947  0.6296099    0.00000       Uiso       1.00
       C60          C  0.7898523  0.0420710  0.6327960    0.00000       Uiso       1.00
       C61          C  0.7953053  0.0519059  0.6460783    0.00000       Uiso       1.00
       C62          C  0.8138510  0.0328313  0.6559853    0.00000       Uiso       1.00
       H28          H  0.8185007  0.0399495  0.6661724    0.00000       Uiso       1.00
       H29          H  0.7982692  0.0062524  0.6192726    0.00000       Uiso       1.00
       H30          H  0.7756686  0.0564178  0.6249005    0.00000       Uiso       1.00
       C63          C  0.9551644  0.8095022  0.6642473    0.00000       Uiso       1.00
       C64          C  0.9836820  0.7939665  0.6455649    0.00000       Uiso       1.00
       C65          C  0.9457803  0.8088171  0.6927125    0.00000       Uiso       1.00
       C66          C  0.9647114  0.7930730  0.7023582    0.00000       Uiso       1.00
       C67          C  0.9932813  0.7777855  0.6836235    0.00000       Uiso       1.00
       C68          C  0.0026588  0.7783139  0.6551713    0.00000       Uiso       1.00
       H31          H  0.0246135  0.7665462  0.6403350    0.00000       Uiso       1.00
       H32          H  0.9237865  0.8204738  0.7074639    0.00000       Uiso       1.00
       H33          H  0.9569795  0.7929102  0.7244369    0.00000       Uiso       1.00
       C69          C  0.9289027  0.8603237  0.5055968    0.00000       Uiso       1.00
       C70          C  0.9232014  0.8473414  0.4957625    0.00000       Uiso       1.00
       C71          C  0.9472988  0.8703931  0.4865154    0.00000       Uiso       1.00
       C72          C  0.9601309  0.8672058  0.4579393    0.00000       Uiso       1.00
       C73          C  0.9546778  0.8539230  0.4481049    0.00000       Uiso       1.00
       C74          C  0.9361315  0.8440170  0.4671798    0.00000       Uiso       1.00
       H34          H  0.9314817  0.8338297  0.4600620    0.00000       Uiso       1.00
       H35          H  0.9517136  0.8807306  0.4937573    0.00000       Uiso       1.00
       H36          H  0.9743149  0.8751007  0.4435923    0.00000       Uiso       1.00
        F9          F  0.8464822  0.9848489  0.6629275    0.00000       Uiso       1.00
       F10          F  0.9942498  0.7936633  0.6155983    0.00000       Uiso       1.00
       F11          F  0.9034992  0.8370768  0.5151616    0.00000       Uiso       1.00
       F12          F  0.7557287  0.8844143  0.7063445    0.00000       Uiso       1.00
       C75          C  0.8330250  0.8733273  0.6695411    0.00000       Uiso       1.00
       C76          C  0.8542158  0.8642393  0.6422248    0.00000       Uiso       1.00
       C77          C  0.8569862  0.8434190  0.6323892    0.00000       Uiso       1.00
       C78          C  0.8376030  0.8346176  0.6477762    0.00000       Uiso       1.00
       C79          C  0.8152744  0.8455007  0.6740519    0.00000       Uiso       1.00
       C80          C  0.8134816  0.8646770  0.6849184    0.00000       Uiso       1.00
       H37          H  0.8312894  0.8876705  0.6788315    0.00000       Uiso       1.00
       H38          H  0.7972609  0.8725561  0.7055710    0.00000       Uiso       1.00
       H39          H  0.8741676  0.8338453  0.6126418    0.00000       Uiso       1.00
       C81          C  0.8606718  0.9065363  0.6285640    0.00000       Uiso       1.00
       C82          C  0.8758857  0.9186394  0.6224381    0.00000       Uiso       1.00
       C83          C  0.8327864  0.9245856  0.6356286    0.00000       Uiso       1.00
       C84          C  0.8199893  0.9527701  0.6396236    0.00000       Uiso       1.00
       C85          C  0.8348199  0.9642159  0.6356762    0.00000       Uiso       1.00
       C86          C  0.8630699  0.9468328  0.6266031    0.00000       Uiso       1.00
       H40          H  0.8977835  0.9060322  0.6148839    0.00000       Uiso       1.00
       H41          H  0.8753812  0.9551747  0.6221710    0.00000       Uiso       1.00
       H42          H  0.8206462  0.9169778  0.6381948    0.00000       Uiso       1.00
       C87          C  0.8957635  0.8577843  0.6357704    0.00000       Uiso       1.00
       C88          C  0.9169540  0.8304676  0.6266834    0.00000       Uiso       1.00
       C89          C  0.8929929  0.8676207  0.6565902    0.00000       Uiso       1.00
       C90          C  0.9123756  0.8522340  0.6653923    0.00000       Uiso       1.00
       C91          C  0.9347039  0.8259579  0.6545104    0.00000       Uiso       1.00
       C92          C  0.9364969  0.8150906  0.6353344    0.00000       Uiso       1.00
       H43          H  0.9186898  0.8211767  0.6123405    0.00000       Uiso       1.00
       H44          H  0.9527175  0.7944376  0.6274559    0.00000       Uiso       1.00
       H45          H  0.8758116  0.8873686  0.6661631    0.00000       Uiso       1.00
       C93          C  0.8893087  0.8714435  0.5934728    0.00000       Uiso       1.00
       C94          C  0.8740951  0.8775691  0.5813694    0.00000       Uiso       1.00
       C95          C  0.9171943  0.8643780  0.5754238    0.00000       Uiso       1.00
       C96          C  0.9299918  0.8603818  0.5472397    0.00000       Uiso       1.00
       C97          C  0.9151616  0.8643289  0.5357935    0.00000       Uiso       1.00
       C98          C  0.8869113  0.8734030  0.5531761    0.00000       Uiso       1.00
       H46          H  0.8521971  0.8851241  0.5939761    0.00000       Uiso       1.00
       H47          H  0.8746003  0.8778350  0.5448340    0.00000       Uiso       1.00
       H48          H  0.9293342  0.8618119  0.5830319    0.00000       Uiso       1.00
       F13          F  0.7901705  0.9704821  0.6484231    0.00000       Uiso       1.00
       F14          F  0.9090692  0.8643413  0.6864105    0.00000       Uiso       1.00
       F15          F  0.9598109  0.8515813  0.5295281    0.00000       Uiso       1.00
       F16          F  0.8409092  0.8135989  0.6356697    0.00000       Uiso       1.00
       C99          C  0.7500055  0.3749957  0.8750017    0.00000       Uiso       1.00
      C100          C  0.6689690  0.3473409  0.0042487    0.00000       Uiso       1.00
      C101          C  0.6845046  0.3603229  0.9944134    0.00000       Uiso       1.00
      C102          C  0.6838194  0.3703929  0.0134952    0.00000       Uiso       1.00
      C103          C  0.6680747  0.3672067  0.0420715    0.00000       Uiso       1.00
      C104          C  0.6527869  0.3539243  0.0519061    0.00000       Uiso       1.00
      C105          C  0.6533157  0.3440175  0.0328315    0.00000       Uiso       1.00
       H49          H  0.6415479  0.3338304  0.0399495    0.00000       Uiso       1.00
       H50          H  0.6954762  0.3807302  0.0062531    0.00000       Uiso       1.00
       H51          H  0.6679116  0.3751020  0.0564182    0.00000       Uiso       1.00
      C106          C  0.7353296  0.3357571  0.8095027    0.00000       Uiso       1.00
      C107          C  0.7223477  0.3544398  0.7939668    0.00000       Uiso       1.00
      C108          C  0.7453988  0.3072918  0.8088177    0.00000       Uiso       1.00
      C109          C  0.7422119  0.2976463  0.7930734    0.00000       Uiso       1.00
      C110          C  0.7289295  0.3163812  0.7777857    0.00000       Uiso       1.00
      C111          C  0.7190236  0.3448335  0.7783139    0.00000       Uiso       1.00
       H52          H  0.7088365  0.3596699  0.7665461    0.00000       Uiso       1.00
       H53          H  0.7557359  0.2925403  0.8204746    0.00000       Uiso       1.00
       H54          H  0.7501065  0.2755677  0.7929106    0.00000       Uiso       1.00
      C112          C  0.7107700  0.4944073  0.8603241    0.00000       Uiso       1.00
      C113          C  0.7294535  0.5042416  0.8473419    0.00000       Uiso       1.00
      C114          C  0.6823047  0.5134887  0.8703930    0.00000       Uiso       1.00
      C115          C  0.6726599  0.5420649  0.8672057    0.00000       Uiso       1.00
      C116          C  0.6913957  0.5518993  0.8539231    0.00000       Uiso       1.00
      C117          C  0.7198479  0.5328244  0.8440173    0.00000       Uiso       1.00
       H55          H  0.7346849  0.5399422  0.8338302    0.00000       Uiso       1.00
       H56          H  0.6675525  0.5062468  0.8807305    0.00000       Uiso       1.00
       H57          H  0.6505812  0.5564119  0.8751003    0.00000       Uiso       1.00
      C118          C  0.8694178  0.3094958  0.8357669    0.00000       Uiso       1.00
      C119          C  0.8792523  0.2939608  0.8544502    0.00000       Uiso       1.00
      C120          C  0.8884994  0.3088096  0.8073018    0.00000       Uiso       1.00
      C121          C  0.9170759  0.2930652  0.7976571    0.00000       Uiso       1.00
      C122          C  0.9269103  0.2777783  0.8163928    0.00000       Uiso       1.00
      C123          C  0.9078352  0.2783077  0.8448449    0.00000       Uiso       1.00
       H58          H  0.9149530  0.2665406  0.8596818    0.00000       Uiso       1.00
       H59          H  0.8812575  0.3204658  0.7925496    0.00000       Uiso       1.00
       H60          H  0.9314230  0.2929015  0.7755786    0.00000       Uiso       1.00
       F17          F  0.7120833  0.3844064  0.7936634    0.00000       Uiso       1.00
       F18          F  0.7594202  0.4848424  0.8370777    0.00000       Uiso       1.00
       F19          F  0.8598528  0.2936586  0.8844168    0.00000       Uiso       1.00
       F20          F  0.6686658  0.3370757  0.9848492    0.00000       Uiso       1.00
      C124          C  0.7054715  0.3775656  0.9186398    0.00000       Uiso       1.00
      C125          C  0.7327884  0.3714395  0.9065371    0.00000       Uiso       1.00
      C126          C  0.7426243  0.3643746  0.9245867    0.00000       Uiso       1.00
      C127          C  0.7272372  0.3603793  0.9527709    0.00000       Uiso       1.00
      C128          C  0.7009608  0.3643270  0.9642165    0.00000       Uiso       1.00
      C129          C  0.6900939  0.3734004  0.9468333    0.00000       Uiso       1.00
       H61          H  0.6961808  0.3851201  0.9060325    0.00000       Uiso       1.00
       H62          H  0.6694407  0.3778327  0.9551749    0.00000       Uiso       1.00
       H63          H  0.7623724  0.3618082  0.9169790    0.00000       Uiso       1.00
      C130          C  0.7464486  0.3642336  0.8577851    0.00000       Uiso       1.00
      C131          C  0.7525746  0.3733208  0.8304684    0.00000       Uiso       1.00
      C132          C  0.7393828  0.3434136  0.8676214    0.00000       Uiso       1.00
      C133          C  0.7353869  0.3346116  0.8522345    0.00000       Uiso       1.00
      C134          C  0.7393345  0.3454939  0.8259584    0.00000       Uiso       1.00
      C135          C  0.7484087  0.3646699  0.8150913    0.00000       Uiso       1.00
       H64          H  0.7601296  0.3876637  0.8211775    0.00000       Uiso       1.00
       H65          H  0.7528409  0.3725485  0.7944383    0.00000       Uiso       1.00
       H66          H  0.7368164  0.3338404  0.8873693    0.00000       Uiso       1.00
      C136          C  0.7392441  0.4065311  0.8714443    0.00000       Uiso       1.00
      C137          C  0.7483321  0.4186343  0.8775700    0.00000       Uiso       1.00
      C138          C  0.7184241  0.4245802  0.8643785    0.00000       Uiso       1.00
      C139          C  0.7096229  0.4527644  0.8603821    0.00000       Uiso       1.00
      C140          C  0.7205060  0.4642105  0.8643294    0.00000       Uiso       1.00
      C141          C  0.7396821  0.4468277  0.8734037    0.00000       Uiso       1.00
       H67          H  0.7626752  0.4060274  0.8851250    0.00000       Uiso       1.00
       H68          H  0.7475615  0.4551696  0.8778356    0.00000       Uiso       1.00
       H69          H  0.7088504  0.4169722  0.8618122    0.00000       Uiso       1.00
      C142          C  0.7815410  0.3577788  0.8642405    0.00000       Uiso       1.00
      C143          C  0.7936438  0.3304625  0.8733288    0.00000       Uiso       1.00
      C144          C  0.7995908  0.3676145  0.8434204    0.00000       Uiso       1.00
      C145          C  0.8277753  0.3522275  0.8346193    0.00000       Uiso       1.00
      C146          C  0.8392208  0.3259518  0.8455027    0.00000       Uiso       1.00
      C147          C  0.8218374  0.3150851  0.8646788    0.00000       Uiso       1.00
       H70          H  0.7810363  0.3211720  0.8876718    0.00000       Uiso       1.00
       H71          H  0.8301789  0.2944324  0.8725582    0.00000       Uiso       1.00
       H72          H  0.7919831  0.3873620  0.8338464    0.00000       Uiso       1.00
       F21          F  0.7265863  0.3135931  0.8643417    0.00000       Uiso       1.00
       F22          F  0.6886045  0.4704762  0.8515811    0.00000       Uiso       1.00
       F23          F  0.8454878  0.3643340  0.8136006    0.00000       Uiso       1.00
       F24          F  0.7393440  0.3515794  0.9704832    0.00000       Uiso       1.00
      C148          C  0.3749983  0.1249994  0.3749937    0.00000       Uiso       1.00
      C149          C  0.3267867  0.1455519  0.2939577    0.00000       Uiso       1.00
      C150          C  0.3210861  0.1642351  0.3094927    0.00000       Uiso       1.00
      C151          C  0.3026907  0.1927004  0.3088063    0.00000       Uiso       1.00
      C152          C  0.2898588  0.2023452  0.2930616    0.00000       Uiso       1.00
      C153          C  0.2953113  0.1836096  0.2777747    0.00000       Uiso       1.00
      C154          C  0.3138568  0.1551575  0.2783044    0.00000       Uiso       1.00
       H73          H  0.3185061  0.1403206  0.2665372    0.00000       Uiso       1.00
       H74          H  0.2982765  0.2074524  0.3204625    0.00000       Uiso       1.00
       H75          H  0.2756754  0.2244239  0.2928978    0.00000       Uiso       1.00
      C155          C  0.4551718  0.0055875  0.3603218    0.00000       Uiso       1.00
      C156          C  0.4836894  0.9957520  0.3473401    0.00000       Uiso       1.00
      C157          C  0.4457872  0.9865054  0.3703917    0.00000       Uiso       1.00
      C158          C  0.4647180  0.9579292  0.3672057    0.00000       Uiso       1.00
      C159          C  0.4932880  0.9480945  0.3539236    0.00000       Uiso       1.00
      C160          C  0.5026659  0.9671692  0.3440170    0.00000       Uiso       1.00
       H76          H  0.5246208  0.9600511  0.3338301    0.00000       Uiso       1.00
       H77          H  0.4237932  0.9937477  0.3807287    0.00000       Uiso       1.00
       H78          H  0.4569858  0.9435824  0.3751010    0.00000       Uiso       1.00
      C161          C  0.4289126  0.1904985  0.3357556    0.00000       Uiso       1.00
      C162          C  0.4232119  0.2060343  0.3544382    0.00000       Uiso       1.00
      C163          C  0.4473086  0.1911837  0.3072904    0.00000       Uiso       1.00
      C164          C  0.4601410  0.2069280  0.2976451    0.00000       Uiso       1.00
      C165          C  0.4546884  0.2222156  0.3163800    0.00000       Uiso       1.00
      C166          C  0.4361423  0.2216871  0.3448321    0.00000       Uiso       1.00
       H79          H  0.4314929  0.2334549  0.3596685    0.00000       Uiso       1.00
       H80          H  0.4517228  0.1795269  0.2925389    0.00000       Uiso       1.00
       H81          H  0.4743248  0.2070908  0.2755665    0.00000       Uiso       1.00
      C167          C  0.2948228  0.1396763  0.4944046    0.00000       Uiso       1.00
      C168          C  0.2663051  0.1526585  0.5042387    0.00000       Uiso       1.00
      C169          C  0.3042067  0.1296071  0.5134863    0.00000       Uiso       1.00
      C170          C  0.2852753  0.1327944  0.5420623    0.00000       Uiso       1.00
      C171          C  0.2567053  0.1460770  0.5518964    0.00000       Uiso       1.00
      C172          C  0.2473280  0.1559829  0.5328212    0.00000       Uiso       1.00
       H82          H  0.2253732  0.1661702  0.5399388    0.00000       Uiso       1.00
       H83          H  0.3262006  0.1192697  0.5062446    0.00000       Uiso       1.00
       H84          H  0.2930071  0.1248996  0.5564095    0.00000       Uiso       1.00
       F25          F  0.4942576  0.0151517  0.3370750    0.00000       Uiso       1.00
       F26          F  0.4035099  0.2063375  0.3844047    0.00000       Uiso       1.00
       F27          F  0.2557376  0.1629230  0.4848393    0.00000       Uiso       1.00
       F28          F  0.3464881  0.1155853  0.2936558    0.00000       Uiso       1.00
      C173          C  0.3758932  0.1266727  0.3304602    0.00000       Uiso       1.00
      C174          C  0.3606797  0.1357608  0.3577765    0.00000       Uiso       1.00
      C175          C  0.3327944  0.1565809  0.3676119    0.00000       Uiso       1.00
      C176          C  0.3199970  0.1653822  0.3522246    0.00000       Uiso       1.00
      C177          C  0.3348271  0.1544991  0.3259489    0.00000       Uiso       1.00
      C178          C  0.3630771  0.1353229  0.3150826    0.00000       Uiso       1.00
       H85          H  0.3977910  0.1123296  0.3211700    0.00000       Uiso       1.00
       H86          H  0.3753881  0.1274438  0.2944300    0.00000       Uiso       1.00
       H87          H  0.3206545  0.1661547  0.3873594    0.00000       Uiso       1.00
      C179          C  0.3957716  0.0934640  0.3714377    0.00000       Uiso       1.00
      C180          C  0.4169624  0.0813611  0.3775639    0.00000       Uiso       1.00
      C181          C  0.3930004  0.0754145  0.3643729    0.00000       Uiso       1.00
      C182          C  0.4123827  0.0472301  0.3603779    0.00000       Uiso       1.00
      C183          C  0.4347115  0.0357844  0.3643256    0.00000       Uiso       1.00
      C184          C  0.4365051  0.0531676  0.3733990    0.00000       Uiso       1.00
       H88          H  0.4186986  0.0939683  0.3851184    0.00000       Uiso       1.00
       H89          H  0.4527259  0.0448259  0.3778314    0.00000       Uiso       1.00
       H90          H  0.3758188  0.0830223  0.3618063    0.00000       Uiso       1.00
      C185          C  0.3893174  0.1422161  0.3642316    0.00000       Uiso       1.00
      C186          C  0.3741042  0.1695327  0.3733186    0.00000       Uiso       1.00
      C187          C  0.4172029  0.1323798  0.3434120    0.00000       Uiso       1.00
      C188          C  0.4300009  0.1477666  0.3346101    0.00000       Uiso       1.00
      C189          C  0.4151710  0.1740428  0.3454922    0.00000       Uiso       1.00
      C190          C  0.3869209  0.1849099  0.3646679    0.00000       Uiso       1.00
       H91          H  0.3522064  0.1788236  0.3876613    0.00000       Uiso       1.00
       H92          H  0.3746101  0.2055629  0.3725464    0.00000       Uiso       1.00
       H93          H  0.4293426  0.1126319  0.3338390    0.00000       Uiso       1.00
      C191          C  0.3542245  0.1285566  0.4065288    0.00000       Uiso       1.00
      C192          C  0.3330333  0.1224309  0.4186319    0.00000       Uiso       1.00
      C193          C  0.3569954  0.1356223  0.4245781    0.00000       Uiso       1.00
      C194          C  0.3376125  0.1396185  0.4527622    0.00000       Uiso       1.00
      C195          C  0.3152835  0.1356712  0.4642079    0.00000       Uiso       1.00
      C196          C  0.3134903  0.1265970  0.4468251    0.00000       Uiso       1.00
       H94          H  0.3312973  0.1148758  0.4060250    0.00000       Uiso       1.00
       H95          H  0.2972692  0.1221649  0.4551669    0.00000       Uiso       1.00
       H96          H  0.3741772  0.1381885  0.4169703    0.00000       Uiso       1.00
       F29          F  0.4090756  0.0295179  0.3515781    0.00000       Uiso       1.00
       F30          F  0.4598199  0.1356594  0.3135922    0.00000       Uiso       1.00
       F31          F  0.3409193  0.1484191  0.4704740    0.00000       Uiso       1.00
       F32          F  0.2901780  0.1864009  0.3643308    0.00000       Uiso       1.00
      C197          C  0.9999990  0.6250065  0.1250045    0.00000       Uiso       1.00
      C198          C  0.0205539  0.6526610  0.9957570    0.00000       Uiso       1.00
      C199          C  0.0392372  0.6396793  0.0055926    0.00000       Uiso       1.00
      C200          C  0.0677024  0.6296093  0.9865111    0.00000       Uiso       1.00
      C201          C  0.0773477  0.6327956  0.9579348    0.00000       Uiso       1.00
      C202          C  0.0586125  0.6460778  0.9480999    0.00000       Uiso       1.00
      C203          C  0.0301601  0.6559845  0.9671742    0.00000       Uiso       1.00
       H97          H  0.0153233  0.6661714  0.9600559    0.00000       Uiso       1.00
       H98          H  0.0824542  0.6192722  0.9937535    0.00000       Uiso       1.00
       H99          H  0.0994266  0.6249003  0.9435883    0.00000       Uiso       1.00
      C204          C  0.8805862  0.6642446  0.1905024    0.00000       Uiso       1.00
      C205          C  0.8707512  0.6455619  0.2060381    0.00000       Uiso       1.00
      C206          C  0.8615052  0.6927099  0.1911873    0.00000       Uiso       1.00
      C207          C  0.8329286  0.7023552  0.2069312    0.00000       Uiso       1.00
      C208          C  0.8230937  0.6836202  0.2222188    0.00000       Uiso       1.00
      C209          C  0.8421682  0.6551680  0.2216906    0.00000       Uiso       1.00
      H100          H  0.8350498  0.6403315  0.2334583    0.00000       Uiso       1.00
      H101          H  0.8687476  0.7074615  0.1795306    0.00000       Uiso       1.00
      H102          H  0.8185820  0.7244338  0.2070939    0.00000       Uiso       1.00
      C210          C  0.0654973  0.5055951  0.1396825    0.00000       Uiso       1.00
      C211          C  0.0810327  0.4957609  0.1526649    0.00000       Uiso       1.00
      C212          C  0.0661826  0.4865136  0.1296132    0.00000       Uiso       1.00
      C213          C  0.0819266  0.4579374  0.1328007    0.00000       Uiso       1.00
      C214          C  0.0972140  0.4481031  0.1460835    0.00000       Uiso       1.00
      C215          C  0.0966853  0.4671781  0.1559895    0.00000       Uiso       1.00
      H103          H  0.1084528  0.4600604  0.1661770    0.00000       Uiso       1.00
      H104          H  0.0545261  0.4937553  0.1192756    0.00000       Uiso       1.00
      H105          H  0.0820896  0.4435903  0.1249059    0.00000       Uiso       1.00
      C216          C  0.0146754  0.6905070  0.1642407    0.00000       Uiso       1.00
      C217          C  0.0276581  0.7060421  0.1455575    0.00000       Uiso       1.00
      C218          C  0.0046057  0.6911932  0.1927059    0.00000       Uiso       1.00
      C219          C  0.0077928  0.7069378  0.2023508    0.00000       Uiso       1.00
      C220          C  0.0210758  0.7222248  0.1836153    0.00000       Uiso       1.00
      C221          C  0.0309823  0.7216953  0.1551632    0.00000       Uiso       1.00
      H106          H  0.0411698  0.7334626  0.1403263    0.00000       Uiso       1.00
      H107          H  0.9942681  0.6795369  0.2074578    0.00000       Uiso       1.00
      H108          H  0.9998977  0.7071015  0.2244295    0.00000       Uiso       1.00
       F33          F  0.8901500  0.6155953  0.2063415    0.00000       Uiso       1.00
       F34          F  0.0813358  0.5151601  0.1629294    0.00000       Uiso       1.00
       F35          F  0.0379231  0.7063443  0.1155909    0.00000       Uiso       1.00
       F36          F  0.9905875  0.6629262  0.0151563    0.00000       Uiso       1.00
      C222          C  0.0016732  0.6224365  0.0813661    0.00000       Uiso       1.00
      C223          C  0.0107610  0.6285627  0.0934691    0.00000       Uiso       1.00
      C224          C  0.0315815  0.6356277  0.0754199    0.00000       Uiso       1.00
      C225          C  0.0403834  0.6396230  0.0472355    0.00000       Uiso       1.00
      C226          C  0.0295005  0.6356752  0.0357896    0.00000       Uiso       1.00
      C227          C  0.0103240  0.6266016  0.0531726    0.00000       Uiso       1.00
      H109          H  0.9873300  0.6148819  0.0939732    0.00000       Uiso       1.00
      H110          H  0.0024450  0.6221692  0.0448307    0.00000       Uiso       1.00
      H111          H  0.0411552  0.6381943  0.0830278    0.00000       Uiso       1.00
      C228          C  0.9684634  0.6357685  0.1422209    0.00000       Uiso       1.00
      C229          C  0.9563600  0.6266813  0.1695375    0.00000       Uiso       1.00
      C230          C  0.9504143  0.6565884  0.1323843    0.00000       Uiso       1.00
      C231          C  0.9222297  0.6653903  0.1477708    0.00000       Uiso       1.00
      C232          C  0.9107835  0.6545079  0.1740469    0.00000       Uiso       1.00
      C233          C  0.9281663  0.6353320  0.1849144    0.00000       Uiso       1.00
      H112          H  0.9689670  0.6123385  0.1788286    0.00000       Uiso       1.00
      H113          H  0.9198242  0.6274534  0.2055673    0.00000       Uiso       1.00
      H114          H  0.9580225  0.6661616  0.1126365    0.00000       Uiso       1.00
      C234          C  0.0172155  0.5934712  0.1285620    0.00000       Uiso       1.00
      C235          C  0.0445322  0.5813681  0.1224367    0.00000       Uiso       1.00
      C236          C  0.0073790  0.5754219  0.1356276    0.00000       Uiso       1.00
      C237          C  0.0227656  0.5472378  0.1396240    0.00000       Uiso       1.00
      C238          C  0.0490418  0.5357919  0.1356771    0.00000       Uiso       1.00
      C239          C  0.0599091  0.5531748  0.1266031    0.00000       Uiso       1.00
      H115          H  0.0538232  0.5939751  0.1148819    0.00000       Uiso       1.00
      H116          H  0.0805621  0.5448329  0.1221715    0.00000       Uiso       1.00
      H117          H  0.9876312  0.5830299  0.1381936    0.00000       Uiso       1.00
      C240          C  0.0035561  0.6422235  0.1357661    0.00000       Uiso       1.00
      C241          C  0.9974308  0.6695399  0.1266779    0.00000       Uiso       1.00
      C242          C  0.0106213  0.6323880  0.1565864    0.00000       Uiso       1.00
      C243          C  0.0146174  0.6477751  0.1653878    0.00000       Uiso       1.00
      C244          C  0.0106705  0.6740509  0.1545046    0.00000       Uiso       1.00
      C245          C  0.0015967  0.6849174  0.1353282    0.00000       Uiso       1.00
      H118          H  0.9898761  0.6788303  0.1123347    0.00000       Uiso       1.00
      H119          H  0.9971650  0.7055702  0.1274489    0.00000       Uiso       1.00
      H120          H  0.0131872  0.6126404  0.1661604    0.00000       Uiso       1.00
       F37          F  0.9045178  0.6864087  0.1356634    0.00000       Uiso       1.00
       F38          F  0.0106581  0.5295259  0.1484247    0.00000       Uiso       1.00
       F39          F  0.0234176  0.6356687  0.1864067    0.00000       Uiso       1.00
       F40          F  0.0614024  0.6484231  0.0295235    0.00000       Uiso       1.00
      C246          C  0.2499949  0.9999826  0.0000069    0.00000       Uiso       1.00
      C247          C  0.3792408  0.8912899  0.9517983    0.00000       Uiso       1.00
      C248          C  0.3694067  0.9198073  0.9460967    0.00000       Uiso       1.00
      C249          C  0.3884885  0.9291910  0.9277010    0.00000       Uiso       1.00
      C250          C  0.4170649  0.9102597  0.9148697    0.00000       Uiso       1.00
      C251          C  0.4268990  0.8816900  0.9203231    0.00000       Uiso       1.00
      C252          C  0.4078237  0.8723130  0.9388689    0.00000       Uiso       1.00
      H121          H  0.4149413  0.8503584  0.9435190    0.00000       Uiso       1.00
      H122          H  0.3812468  0.9511847  0.9232861    0.00000       Uiso       1.00
      H123          H  0.4314122  0.9179913  0.9006860    0.00000       Uiso       1.00
      C253          C  0.1844932  0.9460717  0.0801821    0.00000       Uiso       1.00
      C254          C  0.1689576  0.9517731  0.1086993    0.00000       Uiso       1.00
      C255          C  0.1838072  0.9276758  0.0707984    0.00000       Uiso       1.00
      C256          C  0.1680623  0.9148442  0.0897297    0.00000       Uiso       1.00
      C257          C  0.1527749  0.9202974  0.1182993    0.00000       Uiso       1.00
      C258          C  0.1533042  0.9388435  0.1276763    0.00000       Uiso       1.00
      H124          H  0.1415367  0.9434934  0.1496308    0.00000       Uiso       1.00
      H125          H  0.1954637  0.9232610  0.0488048    0.00000       Uiso       1.00
      H126          H  0.1678988  0.9006603  0.0819982    0.00000       Uiso       1.00
      C259          C  0.2353214  0.0801590  0.0539175    0.00000       Uiso       1.00
      C260          C  0.2223396  0.1086764  0.0482159    0.00000       Uiso       1.00
      C261          C  0.2453910  0.0707755  0.0723135    0.00000       Uiso       1.00
      C262          C  0.2422045  0.0897069  0.0851450    0.00000       Uiso       1.00
      C263          C  0.2289224  0.1182765  0.0796915    0.00000       Uiso       1.00
      C264          C  0.2190161  0.1276535  0.0611454    0.00000       Uiso       1.00
      H127          H  0.2088292  0.1496081  0.0564953    0.00000       Uiso       1.00
      H128          H  0.2557281  0.0487818  0.0767284    0.00000       Uiso       1.00
      H129          H  0.2500995  0.0819754  0.0993289    0.00000       Uiso       1.00
      C265          C  0.2107580  0.0538938  0.9198302    0.00000       Uiso       1.00
      C266          C  0.2294411  0.0481925  0.8913129    0.00000       Uiso       1.00
      C267          C  0.1822926  0.0722896  0.9292136    0.00000       Uiso       1.00
      C268          C  0.1726476  0.0851211  0.9102820    0.00000       Uiso       1.00
      C269          C  0.1913830  0.0796679  0.8817125    0.00000       Uiso       1.00
      C270          C  0.2198353  0.0611219  0.8723357    0.00000       Uiso       1.00
      H130          H  0.2346721  0.0564720  0.8503813    0.00000       Uiso       1.00
      H131          H  0.1675407  0.0767044  0.9512072    0.00000       Uiso       1.00
      H132          H  0.1505688  0.0993049  0.9180133    0.00000       Uiso       1.00
       F41          F  0.1686553  0.9714751  0.1192665    0.00000       Uiso       1.00
       F42          F  0.2120749  0.1192435  0.0285138    0.00000       Uiso       1.00
       F43          F  0.2594078  0.0284906  0.8807461    0.00000       Uiso       1.00
       F44          F  0.3598413  0.8807226  0.9715001    0.00000       Uiso       1.00
      C271          C  0.2936332  0.9580185  0.0009031    0.00000       Uiso       1.00
      C272          C  0.2815301  0.9792088  0.9856884    0.00000       Uiso       1.00
      C273          C  0.2995797  0.9819790  0.9578031    0.00000       Uiso       1.00
      C274          C  0.3277642  0.9625962  0.9450063    0.00000       Uiso       1.00
      C275          C  0.3392097  0.9402680  0.9598371    0.00000       Uiso       1.00
      C276          C  0.3218264  0.9384754  0.9880869    0.00000       Uiso       1.00
      H133          H  0.2810259  0.9562830  0.0228007    0.00000       Uiso       1.00
      H134          H  0.3301684  0.9222550  0.0003990    0.00000       Uiso       1.00
      H135          H  0.2919720  0.9991602  0.9456629    0.00000       Uiso       1.00
      C277          C  0.2327775  0.9856644  0.0207807    0.00000       Uiso       1.00
      C278          C  0.2054610  0.0008789  0.0419709    0.00000       Uiso       1.00
      C279          C  0.2426131  0.9577790  0.0180105    0.00000       Uiso       1.00
      C280          C  0.2272257  0.9449819  0.0373933    0.00000       Uiso       1.00
      C281          C  0.2009497  0.9598123  0.0597214    0.00000       Uiso       1.00
      C282          C  0.1900831  0.9880623  0.0615139    0.00000       Uiso       1.00
      H136          H  0.1961706  0.0227766  0.0437064    0.00000       Uiso       1.00
      H137          H  0.1694303  0.0003743  0.0777343    0.00000       Uiso       1.00
      H138          H  0.2623609  0.9456390  0.0008294    0.00000       Uiso       1.00
      C283          C  0.2464387  0.0207572  0.0143250    0.00000       Uiso       1.00
      C284          C  0.2525647  0.0419477  0.9991105    0.00000       Uiso       1.00
      C285          C  0.2393732  0.0179870  0.0422104    0.00000       Uiso       1.00
      C286          C  0.2353778  0.0373699  0.0550074    0.00000       Uiso       1.00
      C287          C  0.2393257  0.0596982  0.0401768    0.00000       Uiso       1.00
      C288          C  0.2483996  0.0614909  0.0119270    0.00000       Uiso       1.00
      H139          H  0.2601195  0.0436832  0.9772128    0.00000       Uiso       1.00
      H140          H  0.2528317  0.0777115  0.9996151    0.00000       Uiso       1.00
      H141          H  0.2368065  0.0008058  0.0543506    0.00000       Uiso       1.00
      C289          C  0.2392330  0.0143014  0.9792324    0.00000       Uiso       1.00
      C290          C  0.2483204  0.9990869  0.9580420    0.00000       Uiso       1.00
      C291          C  0.2184132  0.0421868  0.9820024    0.00000       Uiso       1.00
      C292          C  0.2096116  0.0549838  0.9626193    0.00000       Uiso       1.00
      C293          C  0.2204943  0.0401532  0.9402910    0.00000       Uiso       1.00
      C294          C  0.2396701  0.0119033  0.9384987    0.00000       Uiso       1.00
      H142          H  0.2626631  0.9771891  0.9563066    0.00000       Uiso       1.00
      H143          H  0.2475486  0.9995913  0.9222783    0.00000       Uiso       1.00
      H144          H  0.2088398  0.0543269  0.9991835    0.00000       Uiso       1.00
       F45          F  0.2393321  0.9151631  0.0340873    0.00000       Uiso       1.00
       F46          F  0.2265771  0.0340640  0.0848263    0.00000       Uiso       1.00
       F47          F  0.1885934  0.0848026  0.9659251    0.00000       Uiso       1.00
       F48          F  0.3454764  0.9659023  0.9151876    0.00000       Uiso       1.00
      C295          C  0.6389476  0.3220321  0.6089483    0.00000       Uiso       1.00
      C296          C  0.6542601  0.2946012  0.6149926    0.00000       Uiso       1.00
      C297          C  0.6572027  0.2728187  0.6067786    0.00000       Uiso       1.00
      C298          C  0.6736271  0.2455450  0.6119810    0.00000       Uiso       1.00
      C299          C  0.6889648  0.2392651  0.6239127    0.00000       Uiso       1.00
      C300          C  0.6860387  0.2614250  0.6317348    0.00000       Uiso       1.00
      C301          C  0.6672628  0.2890167  0.6294904    0.00000       Uiso       1.00
        O1          O  0.6259930  0.3309918  0.5939499    0.00000       Uiso       1.00
      H145          H  0.6996399  0.2572657  0.6380815    0.00000       Uiso       1.00
      C302          C  0.7113580  0.3049420  0.7356849    0.00000       Uiso       1.00
      C303          C  0.6992453  0.3110162  0.7203870    0.00000       Uiso       1.00
      C304          C  0.6804605  0.3380957  0.7174806    0.00000       Uiso       1.00
      C305          C  0.6694039  0.3438241  0.7011985    0.00000       Uiso       1.00
      C306          C  0.6782584  0.3228397  0.6859831    0.00000       Uiso       1.00
      C307          C  0.6975557  0.2957676  0.6888152    0.00000       Uiso       1.00
      C308          C  0.7065560  0.2891443  0.7074475    0.00000       Uiso       1.00
        O2          O  0.7072008  0.3240392  0.7486622    0.00000       Uiso       1.00
      H146          H  0.6742491  0.3547145  0.7280990    0.00000       Uiso       1.00
      H147          H  0.6540952  0.3647993  0.7005219    0.00000       Uiso       1.00
      H148          H  0.7068728  0.2799650  0.6752846    0.00000       Uiso       1.00
      C309          C  0.7665548  0.1229698  0.6633276    0.00000       Uiso       1.00
      C310          C  0.7605283  0.1442956  0.6754315    0.00000       Uiso       1.00
      C311          C  0.7688482  0.1388933  0.6941991    0.00000       Uiso       1.00
      C312          C  0.7635409  0.1604896  0.7052552    0.00000       Uiso       1.00
      C313          C  0.7513962  0.1878395  0.6964168    0.00000       Uiso       1.00
      C314          C  0.7435835  0.1927887  0.6771477    0.00000       Uiso       1.00
      C315          C  0.7459503  0.1717797  0.6681575    0.00000       Uiso       1.00
        O3          O  0.7814448  0.0950676  0.6676059    0.00000       Uiso       1.00
      H149          H  0.7792612  0.1178566  0.7003804    0.00000       Uiso       1.00
      H150          H  0.7692369  0.1554724  0.7205425    0.00000       Uiso       1.00
      H151          H  0.7370787  0.2127925  0.6678160    0.00000       Uiso       1.00
      C316          C  0.7584959  0.1282110  0.6447814    0.00000       Uiso       1.00
      C317          C  0.7429598  0.1551901  0.6380509    0.00000       Uiso       1.00
      C318          C  0.7346464  0.1606707  0.6192394    0.00000       Uiso       1.00
      C319          C  0.7181258  0.1877743  0.6137950    0.00000       Uiso       1.00
      C320          C  0.7079993  0.2099957  0.6283385    0.00000       Uiso       1.00
      C321          C  0.7162603  0.2040833  0.6474712    0.00000       Uiso       1.00
      C322          C  0.7353389  0.1772883  0.6509769    0.00000       Uiso       1.00
        O4          O  0.7666634  0.1043428  0.6349883    0.00000       Uiso       1.00
      H152          H  0.7065506  0.2201475  0.6609088    0.00000       Uiso       1.00
      C323          C  0.7298803  0.2783424  0.7384874    0.00000       Uiso       1.00
      C324          C  0.7366235  0.2560931  0.7270380    0.00000       Uiso       1.00
      C325          C  0.7554303  0.2290267  0.7299406    0.00000       Uiso       1.00
      C326          C  0.7610891  0.2069806  0.7192081    0.00000       Uiso       1.00
      C327          C  0.7467135  0.2113325  0.7069208    0.00000       Uiso       1.00
      C328          C  0.7274886  0.2387085  0.7046351    0.00000       Uiso       1.00
      C329          C  0.7237908  0.2613459  0.7125000    0.00000       Uiso       1.00
        O5          O  0.7398209  0.2765698  0.7541015    0.00000       Uiso       1.00
      H153          H  0.7658708  0.2251290  0.7403491    0.00000       Uiso       1.00
      H154          H  0.7766163  0.1866034  0.7208399    0.00000       Uiso       1.00
      H155          H  0.7141495  0.2423999  0.6981484    0.00000       Uiso       1.00
      C330          C  0.6361936  0.3433441  0.6170175    0.00000       Uiso       1.00
      C331          C  0.6476380  0.3386450  0.6325185    0.00000       Uiso       1.00
      C332          C  0.6447297  0.3603641  0.6407707    0.00000       Uiso       1.00
      C333          C  0.6554540  0.3553113  0.6571593    0.00000       Uiso       1.00
      C334          C  0.6677512  0.3286503  0.6671797    0.00000       Uiso       1.00
      C335          C  0.6700540  0.3071320  0.6590164    0.00000       Uiso       1.00
      C336          C  0.6621840  0.3112975  0.6400806    0.00000       Uiso       1.00
        O6          O  0.6206686  0.3689404  0.6088067    0.00000       Uiso       1.00
      H156          H  0.6343156  0.3811980  0.6342103    0.00000       Uiso       1.00
      H157          H  0.6538052  0.3724841  0.6620007    0.00000       Uiso       1.00
      H158          H  0.6765487  0.2872904  0.6686329    0.00000       Uiso       1.00
        B1          B  0.6144507  0.3607221  0.5940664    0.00000       Uiso       1.00
        B2          B  0.7253299  0.3057484  0.7603584    0.00000       Uiso       1.00
        B3          B  0.7812347  0.0835159  0.6495374    0.00000       Uiso       1.00
      H159          H  0.6466213  0.2768716  0.5965062    0.00000       Uiso       1.00
      H160          H  0.6743592  0.2295414  0.6062679    0.00000       Uiso       1.00
      H161          H  0.7411094  0.1439946  0.6085438    0.00000       Uiso       1.00
      H162          H  0.7131979  0.1910084  0.5983241    0.00000       Uiso       1.00
      C337          C  0.5699274  0.6779680  0.3910529    0.00000       Uiso       1.00
      C338          C  0.5638531  0.7053989  0.3850087    0.00000       Uiso       1.00
      C339          C  0.5367993  0.7271813  0.3932225    0.00000       Uiso       1.00
      C340          C  0.5311524  0.7544550  0.3880202    0.00000       Uiso       1.00
      C341          C  0.5521415  0.7607351  0.3760889    0.00000       Uiso       1.00
      C342          C  0.5791973  0.7385753  0.3682670    0.00000       Uiso       1.00
      C343          C  0.5857689  0.7109836  0.3705113    0.00000       Uiso       1.00
        O7          O  0.5509343  0.6690081  0.4060511    0.00000       Uiso       1.00
      H163          H  0.5949858  0.7427347  0.3619206    0.00000       Uiso       1.00
      C344          C  0.7519827  0.6950591  0.2643187    0.00000       Uiso       1.00
      C345          C  0.7306466  0.6889847  0.2796164    0.00000       Uiso       1.00
      C346          C  0.7360349  0.6619053  0.2825226    0.00000       Uiso       1.00
      C347          C  0.7144247  0.6561766  0.2988044    0.00000       Uiso       1.00
      C348          C  0.6870795  0.6771610  0.3140196    0.00000       Uiso       1.00
      C349          C  0.6821368  0.7042331  0.3111876    0.00000       Uiso       1.00
      C350          C  0.7031458  0.7108566  0.2925556    0.00000       Uiso       1.00
        O8          O  0.7798998  0.6759619  0.2513416    0.00000       Uiso       1.00
      H164          H  0.7570606  0.6452865  0.2719043    0.00000       Uiso       1.00
      H165          H  0.7194148  0.6352014  0.2994809    0.00000       Uiso       1.00
      H166          H  0.6621206  0.7200357  0.3247181    0.00000       Uiso       1.00
      C351          C  0.5528505  0.8770307  0.3366748    0.00000       Uiso       1.00
      C352          C  0.5802538  0.8557050  0.3245709    0.00000       Uiso       1.00
      C353          C  0.6019386  0.8611075  0.3058037    0.00000       Uiso       1.00
      C354          C  0.6292837  0.8395112  0.2947478    0.00000       Uiso       1.00
      C355          C  0.6356506  0.8121612  0.3035861    0.00000       Uiso       1.00
      C356          C  0.6135181  0.8072119  0.3228550    0.00000       Uiso       1.00
      C357          C  0.5858859  0.8282209  0.3318450    0.00000       Uiso       1.00
        O9          O  0.5441166  0.9049329  0.3323965    0.00000       Uiso       1.00
      H167          H  0.5974962  0.8821442  0.2996224    0.00000       Uiso       1.00
      H168          H  0.6452497  0.8445284  0.2794607    0.00000       Uiso       1.00
      H169          H  0.6176855  0.7872081  0.3321866    0.00000       Uiso       1.00
      C358          C  0.5314869  0.8717893  0.3552207    0.00000       Uiso       1.00
      C359          C  0.5361993  0.8448102  0.3619511    0.00000       Uiso       1.00
      C360          C  0.5145553  0.8393296  0.3807623    0.00000       Uiso       1.00
      C361          C  0.5196940  0.8122258  0.3862065    0.00000       Uiso       1.00
      C362          C  0.5463324  0.7900045  0.3716633    0.00000       Uiso       1.00
      C363          C  0.5678136  0.7959171  0.3525307    0.00000       Uiso       1.00
      C364          C  0.5636026  0.8227121  0.3490252    0.00000       Uiso       1.00
       O10          O  0.5059931  0.8956575  0.3650135    0.00000       Uiso       1.00
      H170          H  0.5876055  0.7798529  0.3390933    0.00000       Uiso       1.00
      C365          C  0.7467077  0.7216588  0.2615164    0.00000       Uiso       1.00
      C366          C  0.7197523  0.7439080  0.2729656    0.00000       Uiso       1.00
      C367          C  0.7143952  0.7709745  0.2700631    0.00000       Uiso       1.00
      C368          C  0.6872755  0.7930204  0.2807954    0.00000       Uiso       1.00
      C369          C  0.6649646  0.7886685  0.2930824    0.00000       Uiso       1.00
      C370          C  0.6708303  0.7612923  0.2953679    0.00000       Uiso       1.00
      C371          C  0.6976346  0.7386551  0.2875032    0.00000       Uiso       1.00
       O11          O  0.7704897  0.7234315  0.2459025    0.00000       Uiso       1.00
      H171          H  0.7313464  0.7748722  0.2596549    0.00000       Uiso       1.00
      H172          H  0.6840572  0.8133977  0.2791637    0.00000       Uiso       1.00
      H173          H  0.6546959  0.7576009  0.3018544    0.00000       Uiso       1.00
      C372          C  0.5965545  0.6566560  0.3829840    0.00000       Uiso       1.00
      C373          C  0.6188005  0.6613552  0.3674834    0.00000       Uiso       1.00
      C374          C  0.6458634  0.6396363  0.3592314    0.00000       Uiso       1.00
      C375          C  0.6679232  0.6446892  0.3428431    0.00000       Uiso       1.00
      C376          C  0.6635796  0.6713502  0.3328227    0.00000       Uiso       1.00
      C377          C  0.6362010  0.6928685  0.3409858    0.00000       Uiso       1.00
      C378          C  0.6135609  0.6887029  0.3599213    0.00000       Uiso       1.00
       O12          O  0.5984151  0.6310596  0.3911947    0.00000       Uiso       1.00
      H174          H  0.6497229  0.6188023  0.3657917    0.00000       Uiso       1.00
      H175          H  0.6882885  0.6275166  0.3380018    0.00000       Uiso       1.00
      H176          H  0.6324706  0.7127100  0.3313693    0.00000       Uiso       1.00
        B4          B  0.5692387  0.6392779  0.4059347    0.00000       Uiso       1.00
        B5          B  0.7914341  0.6942530  0.2396457    0.00000       Uiso       1.00
        B6          B  0.5142865  0.9164845  0.3504647    0.00000       Uiso       1.00
      H177          H  0.5199987  0.7231283  0.4034947    0.00000       Uiso       1.00
      H178          H  0.5101678  0.7704585  0.3937332    0.00000       Uiso       1.00
      H179          H  0.4936467  0.8560055  0.3914577    0.00000       Uiso       1.00
      H180          H  0.5025296  0.8089916  0.4016772    0.00000       Uiso       1.00
      C379          C  0.6078452  0.3392076  0.1230314    0.00000       Uiso       1.00
      C380          C  0.5906681  0.3289701  0.1443684    0.00000       Uiso       1.00
      C381          C  0.5825292  0.3154050  0.1390214    0.00000       Uiso       1.00
      C382          C  0.5664222  0.3041643  0.1606308    0.00000       Uiso       1.00
      C383          C  0.5595292  0.3047364  0.1878991    0.00000       Uiso       1.00
      C384          C  0.5682141  0.3181894  0.1928115    0.00000       Uiso       1.00
      C385          C  0.5818421  0.3321691  0.1718336    0.00000       Uiso       1.00
       O13          O  0.6188775  0.3370281  0.0951389    0.00000       Uiso       1.00
      H181          H  0.5886235  0.3137130  0.1180246    0.00000       Uiso       1.00
      H182          H  0.5596803  0.2948781  0.1557070    0.00000       Uiso       1.00
      H183          H  0.5658172  0.3164205  0.2127520    0.00000       Uiso       1.00
      C386          C  0.5357913  0.3941245  0.3220522    0.00000       Uiso       1.00
      C387          C  0.5460293  0.3899638  0.2946378    0.00000       Uiso       1.00
      C388          C  0.5595948  0.4034493  0.2729344    0.00000       Uiso       1.00
      C389          C  0.5708358  0.3979465  0.2455868    0.00000       Uiso       1.00
      C390          C  0.5702636  0.3775711  0.2392657    0.00000       Uiso       1.00
      C391          C  0.5568103  0.3639742  0.2614030    0.00000       Uiso       1.00
      C392          C  0.5428305  0.3713244  0.2890103    0.00000       Uiso       1.00
       O14          O  0.5379705  0.4109851  0.3309050    0.00000       Uiso       1.00
      H184          H  0.5612866  0.4183516  0.2773378    0.00000       Uiso       1.00
      H185          H  0.5801223  0.4096118  0.2295593    0.00000       Uiso       1.00
      H186          H  0.5585794  0.3464304  0.2572371    0.00000       Uiso       1.00
      C393          C  0.4808748  0.2671552  0.3049136    0.00000       Uiso       1.00
      C394          C  0.4850353  0.2843319  0.3109913    0.00000       Uiso       1.00
      C395          C  0.4715495  0.2924708  0.3380419    0.00000       Uiso       1.00
      C396          C  0.4770525  0.3085776  0.3437801    0.00000       Uiso       1.00
      C397          C  0.4974283  0.3154705  0.3228331    0.00000       Uiso       1.00
      C398          C  0.5110255  0.3067854  0.2957834    0.00000       Uiso       1.00
      C399          C  0.5036752  0.2931577  0.2891536    0.00000       Uiso       1.00
       O15          O  0.4640139  0.2561234  0.3239526    0.00000       Uiso       1.00
      H187          H  0.4566466  0.2863767  0.3546363    0.00000       Uiso       1.00
      H188          H  0.4653870  0.3153195  0.3647315    0.00000       Uiso       1.00
      H189          H  0.5285696  0.3091819  0.2800093    0.00000       Uiso       1.00
      C400          C  0.4945793  0.2586977  0.2783934    0.00000       Uiso       1.00
      C401          C  0.5119725  0.2682561  0.2561404    0.00000       Uiso       1.00
      C402          C  0.5254487  0.2601513  0.2290791    0.00000       Uiso       1.00
      C403          C  0.5416691  0.2710520  0.2070170    0.00000       Uiso       1.00
      C404          C  0.5433968  0.2915894  0.2113760    0.00000       Uiso       1.00
      C405          C  0.5294112  0.2997109  0.2387489    0.00000       Uiso       1.00
      C406          C  0.5154639  0.2868735  0.2613748    0.00000       Uiso       1.00
       O16          O  0.4883329  0.2411556  0.2766675    0.00000       Uiso       1.00
      H190          H  0.5234105  0.2452438  0.2251925    0.00000       Uiso       1.00
      H191          H  0.5525685  0.2634158  0.1866169    0.00000       Uiso       1.00
      H192          H  0.5279491  0.3172676  0.2424590    0.00000       Uiso       1.00
      C407          C  0.5229750  0.3804204  0.3433253    0.00000       Uiso       1.00
      C408          C  0.5181143  0.3630275  0.3386274    0.00000       Uiso       1.00
      C409          C  0.5045286  0.3495517  0.3603175    0.00000       Uiso       1.00
      C410          C  0.4986863  0.3333312  0.3552591    0.00000       Uiso       1.00
      C411          C  0.5047730  0.3316031  0.3286353    0.00000       Uiso       1.00
      C412          C  0.5181608  0.3455885  0.3071263    0.00000       Uiso       1.00
      C413          C  0.5268399  0.3595359  0.3112847    0.00000       Uiso       1.00
       O17          O  0.5150033  0.3866668  0.3688391    0.00000       Uiso       1.00
      H193          H  0.4986038  0.3515906  0.3811494    0.00000       Uiso       1.00
      H194          H  0.4891849  0.3224324  0.3723963    0.00000       Uiso       1.00
      H195          H  0.5204086  0.3470506  0.2873218    0.00000       Uiso       1.00
      C414          C  0.6163031  0.3520236  0.1282783    0.00000       Uiso       1.00
      C415          C  0.6067445  0.3568846  0.1552296    0.00000       Uiso       1.00
      C416          C  0.6148494  0.3704698  0.1606013    0.00000       Uiso       1.00
      C417          C  0.6039485  0.3763123  0.1877220    0.00000       Uiso       1.00
      C418          C  0.5834106  0.3702263  0.2099866    0.00000       Uiso       1.00
      C419          C  0.5752888  0.3568389  0.2041222    0.00000       Uiso       1.00
      C420          C  0.5881265  0.3481596  0.1773379    0.00000       Uiso       1.00
       O18          O  0.6338459  0.3599947  0.1044898    0.00000       Uiso       1.00
      H196          H  0.6297573  0.3763942  0.1436566    0.00000       Uiso       1.00
      H197          H  0.6115847  0.3858131  0.1909857    0.00000       Uiso       1.00
      H198          H  0.5577316  0.3545917  0.2202163    0.00000       Uiso       1.00
        B7          B  0.6353413  0.3503346  0.0835661    0.00000       Uiso       1.00
        B8          B  0.5246634  0.4060949  0.3606749    0.00000       Uiso       1.00
        B9          B  0.4689042  0.2396602  0.3057553    0.00000       Uiso       1.00
      C421          C  0.0700864  0.6607902  0.8769650    0.00000       Uiso       1.00
      C422          C  0.0640090  0.6710276  0.8556278    0.00000       Uiso       1.00
      C423          C  0.0369581  0.6845926  0.8609744    0.00000       Uiso       1.00
      C424          C  0.0312200  0.6958332  0.8393648    0.00000       Uiso       1.00
      C425          C  0.0521674  0.6952612  0.8120966    0.00000       Uiso       1.00
      C426          C  0.0792175  0.6818083  0.8071846    0.00000       Uiso       1.00
      C427          C  0.0858471  0.6678288  0.8281627    0.00000       Uiso       1.00
       O19          O  0.0510467  0.6629698  0.9048573    0.00000       Uiso       1.00
      H199          H  0.0203637  0.6862847  0.8819711    0.00000       Uiso       1.00
      H200          H  0.0102683  0.7051194  0.8442883    0.00000       Uiso       1.00
      H201          H  0.0949922  0.6835773  0.7872442    0.00000       Uiso       1.00
      C428          C  0.2519698  0.6058738  0.6779452    0.00000       Uiso       1.00
      C429          C  0.2306327  0.6100345  0.7053595    0.00000       Uiso       1.00
      C430          C  0.2359801  0.5965491  0.7270631    0.00000       Uiso       1.00
      C431          C  0.2143708  0.6020519  0.7544105    0.00000       Uiso       1.00
      C432          C  0.1871021  0.6224271  0.7607315    0.00000       Uiso       1.00
      C433          C  0.1821895  0.6360240  0.7385939    0.00000       Uiso       1.00
      C434          C  0.2031672  0.6286738  0.7109867    0.00000       Uiso       1.00
       O20          O  0.2798623  0.5890133  0.6690927    0.00000       Uiso       1.00
      H202          H  0.2569775  0.5816469  0.7226599    0.00000       Uiso       1.00
      H203          H  0.2192950  0.5903866  0.7704382    0.00000       Uiso       1.00
      H204          H  0.1622490  0.6535676  0.7427597    0.00000       Uiso       1.00
      C435          C  0.0529469  0.7328421  0.6950814    0.00000       Uiso       1.00
      C436          C  0.0803617  0.7156655  0.6890041    0.00000       Uiso       1.00
      C437          C  0.1020653  0.7075266  0.6619535    0.00000       Uiso       1.00
      C438          C  0.1294131  0.6914200  0.6562156    0.00000       Uiso       1.00
      C439          C  0.1357345  0.6845272  0.6771629    0.00000       Uiso       1.00
      C440          C  0.1135970  0.6932123  0.7042125    0.00000       Uiso       1.00
      C441          C  0.0859894  0.7068398  0.7108420    0.00000       Uiso       1.00
       O21          O  0.0440934  0.7438738  0.6760421    0.00000       Uiso       1.00
      H205          H  0.0976628  0.7136207  0.6453590    0.00000       Uiso       1.00
      H206          H  0.1454410  0.6846780  0.6352642    0.00000       Uiso       1.00
      H207          H  0.1177634  0.6908159  0.7199868    0.00000       Uiso       1.00
      C442          C  0.0316738  0.7412995  0.7216015    0.00000       Uiso       1.00
      C443          C  0.0363721  0.7317412  0.7438548    0.00000       Uiso       1.00
      C444          C  0.0146823  0.7398460  0.7709160    0.00000       Uiso       1.00
      C445          C  0.0197411  0.7289454  0.7929783    0.00000       Uiso       1.00
      C446          C  0.0463650  0.7084081  0.7886196    0.00000       Uiso       1.00
      C447          C  0.0678738  0.7002866  0.7612467    0.00000       Uiso       1.00
      C448          C  0.0637151  0.7131240  0.7386206    0.00000       Uiso       1.00
       O22          O  0.0061596  0.7588415  0.7233272    0.00000       Uiso       1.00
      H208          H  0.9938504  0.7547534  0.7748024    0.00000       Uiso       1.00
      H209          H  0.0026041  0.7365816  0.8133783    0.00000       Uiso       1.00
      H210          H  0.0876784  0.6827300  0.7575368    0.00000       Uiso       1.00
      C449          C  0.2467227  0.6195778  0.6566719    0.00000       Uiso       1.00
      C450          C  0.2197713  0.6369706  0.6613695    0.00000       Uiso       1.00
      C451          C  0.2144000  0.6504464  0.6396793    0.00000       Uiso       1.00
      C452          C  0.1872790  0.6666667  0.6447374    0.00000       Uiso       1.00
      C453          C  0.1650139  0.6683947  0.6713610    0.00000       Uiso       1.00
      C454          C  0.1708779  0.6544094  0.6928703    0.00000       Uiso       1.00
      C455          C  0.1976627  0.6404622  0.6887121    0.00000       Uiso       1.00
       O23          O  0.2705110  0.6133315  0.6311583    0.00000       Uiso       1.00
      H211          H  0.2313461  0.6484075  0.6188474    0.00000       Uiso       1.00
      H212          H  0.1840161  0.6775655  0.6276000    0.00000       Uiso       1.00
      H213          H  0.1547834  0.6529472  0.7126745    0.00000       Uiso       1.00
      C456          C  0.0966070  0.6479744  0.8717183    0.00000       Uiso       1.00
      C457          C  0.1188605  0.6431135  0.8447673    0.00000       Uiso       1.00
      C458          C  0.1459223  0.6295284  0.8393959    0.00000       Uiso       1.00
      C459          C  0.1679845  0.6236860  0.8122752    0.00000       Uiso       1.00
      C460          C  0.1636253  0.6297719  0.7900105    0.00000       Uiso       1.00
      C461          C  0.1362520  0.6431591  0.7958744    0.00000       Uiso       1.00
      C462          C  0.1136261  0.6518384  0.8226587    0.00000       Uiso       1.00
       O24          O  0.0983322  0.6400034  0.8955071    0.00000       Uiso       1.00
      H214          H  0.1498098  0.6236041  0.8563407    0.00000       Uiso       1.00
      H215          H  0.1883850  0.6141853  0.8090118    0.00000       Uiso       1.00
      H216          H  0.1325419  0.6454062  0.7797801    0.00000       Uiso       1.00
       B10          B  0.0692440  0.6496633  0.9164305    0.00000       Uiso       1.00
       B11          B  0.2914349  0.5939035  0.6393228    0.00000       Uiso       1.00
       B12          B  0.0143233  0.7603369  0.6942393    0.00000       Uiso       1.00
      C463          C  0.9839346  0.8359756  0.3771165    0.00000       Uiso       1.00
      C464          C  0.9899781  0.8238568  0.3557604    0.00000       Uiso       1.00
      C465          C  0.9817631  0.8050177  0.3610322    0.00000       Uiso       1.00
      C466          C  0.9869646  0.7941681  0.3394060    0.00000       Uiso       1.00
      C467          C  0.9988965  0.8032250  0.3121369    0.00000       Uiso       1.00
      C468          C  0.0067194  0.8224581  0.3072406    0.00000       Uiso       1.00
      C469          C  0.0044759  0.8312742  0.3282602    0.00000       Uiso       1.00
       O25          O  0.9689361  0.8319815  0.4050692    0.00000       Uiso       1.00
      H217          H  0.0130661  0.8318995  0.2872929    0.00000       Uiso       1.00
      C470          C  0.1106729  0.8912891  0.1779713    0.00000       Uiso       1.00
      C471          C  0.0953749  0.8852515  0.2053816    0.00000       Uiso       1.00
      C472          C  0.0924693  0.8935464  0.2270721    0.00000       Uiso       1.00
      C473          C  0.0761871  0.8882190  0.2544107    0.00000       Uiso       1.00
      C474          C  0.0609708  0.8760898  0.2607718    0.00000       Uiso       1.00
      C475          C  0.0638021  0.8683147  0.2386430    0.00000       Uiso       1.00
      C476          C  0.0824345  0.8706908  0.2110108    0.00000       Uiso       1.00
       O26          O  0.1236511  0.9062284  0.1691510    0.00000       Uiso       1.00
      H218          H  0.1030885  0.9039533  0.2226649    0.00000       Uiso       1.00
      H219          H  0.0755112  0.8938857  0.2703954    0.00000       Uiso       1.00
      H220          H  0.0502708  0.8618295  0.2428568    0.00000       Uiso       1.00
      C477          C  0.0383080  0.7645176  0.1951350    0.00000       Uiso       1.00
      C478          C  0.0504130  0.7798164  0.1890571    0.00000       Uiso       1.00
      C479          C  0.0691806  0.7827330  0.1619700    0.00000       Uiso       1.00
      C480          C  0.0802376  0.7990214  0.1562209    0.00000       Uiso       1.00
      C481          C  0.0714001  0.8142269  0.1772033    0.00000       Uiso       1.00
      C482          C  0.0521308  0.8113643  0.2042848    0.00000       Uiso       1.00
      C483          C  0.0431397  0.7927227  0.2109085    0.00000       Uiso       1.00
       O27          O  0.0425855  0.7515053  0.1759673    0.00000       Uiso       1.00
      H221          H  0.0753613  0.7721092  0.1453762    0.00000       Uiso       1.00
      H222          H  0.0955251  0.7996995  0.1352379    0.00000       Uiso       1.00
      H223          H  0.0427997  0.8248635  0.2201208    0.00000       Uiso       1.00
      C484          C  0.0197617  0.7617008  0.2217398    0.00000       Uiso       1.00
      C485          C  0.0130320  0.7731440  0.2440058    0.00000       Uiso       1.00
      C486          C  0.9942204  0.7703121  0.2711303    0.00000       Uiso       1.00
      C487          C  0.9887770  0.7808954  0.2930947    0.00000       Uiso       1.00
      C488          C  0.0033211  0.7929899  0.2886774    0.00000       Uiso       1.00
      C489          C  0.0224541  0.7953374  0.2612838    0.00000       Uiso       1.00
      C490          C  0.0259590  0.7876207  0.2387003    0.00000       Uiso       1.00
       O28          O  0.0099676  0.7460005  0.2233659    0.00000       Uiso       1.00
      H224          H  0.0358923  0.8016916  0.2575559    0.00000       Uiso       1.00
      C491          C  0.1134746  0.8832114  0.1566471    0.00000       Uiso       1.00
      C492          C  0.1020242  0.8677059  0.1613536    0.00000       Uiso       1.00
      C493          C  0.1049260  0.8594460  0.1396449    0.00000       Uiso       1.00
      C494          C  0.0941926  0.8430594  0.1447189    0.00000       Uiso       1.00
      C495          C  0.0819051  0.8330365  0.1713817    0.00000       Uiso       1.00
      C496          C  0.0796203  0.8411879  0.1928916    0.00000       Uiso       1.00
      C497          C  0.0874861  0.8601269  0.1887241    0.00000       Uiso       1.00
       O29          O  0.1290890  0.8913786  0.1310926    0.00000       Uiso       1.00
      H225          H  0.1153346  0.8659883  0.1187961    0.00000       Uiso       1.00
      H226          H  0.0958238  0.8382091  0.1275605    0.00000       Uiso       1.00
      H227          H  0.0731334  0.8315408  0.2127173    0.00000       Uiso       1.00
      C498          C  0.9920047  0.8545330  0.3718010    0.00000       Uiso       1.00
      C499          C  0.0075057  0.8612774  0.3448560    0.00000       Uiso       1.00
      C500          C  0.0157588  0.8800877  0.3395116    0.00000       Uiso       1.00
      C501          C  0.0321475  0.8857582  0.3123991    0.00000       Uiso       1.00
      C502          C  0.0421672  0.8713941  0.2900821    0.00000       Uiso       1.00
      C503          C  0.0340030  0.8521792  0.2959429    0.00000       Uiso       1.00
      C504          C  0.0150670  0.8484756  0.3227485    0.00000       Uiso       1.00
       O30          O  0.9837946  0.8646047  0.3955362    0.00000       Uiso       1.00
      H228          H  0.0091991  0.8905076  0.3564856    0.00000       Uiso       1.00
      H229          H  0.0369897  0.9012818  0.3092061    0.00000       Uiso       1.00
      H230          H  0.0436189  0.8388321  0.2798323    0.00000       Uiso       1.00
       B13          B  0.9690537  0.8501694  0.4164944    0.00000       Uiso       1.00
       B14          B  0.1353469  0.9060659  0.1393261    0.00000       Uiso       1.00
       B15          B  0.0245162  0.7397444  0.1942460    0.00000       Uiso       1.00
      H231          H  0.9714906  0.7984899  0.3818857    0.00000       Uiso       1.00
      H232          H  0.9812509  0.7788970  0.3443874    0.00000       Uiso       1.00
      H233          H  0.9835241  0.7600995  0.2753632    0.00000       Uiso       1.00
      H234          H  0.9733058  0.7792023  0.3134932    0.00000       Uiso       1.00
      C505          C  0.4980112  0.8220665  0.8941311    0.00000       Uiso       1.00
      C506          C  0.5193479  0.7946520  0.8899715    0.00000       Uiso       1.00
      C507          C  0.5140002  0.7729487  0.9034576    0.00000       Uiso       1.00
      C508          C  0.5356092  0.7456011  0.8979557    0.00000       Uiso       1.00
      C509          C  0.5628780  0.7392794  0.8775804    0.00000       Uiso       1.00
      C510          C  0.5677909  0.7614167  0.8639830    0.00000       Uiso       1.00
      C511          C  0.5468135  0.7890242  0.8713325    0.00000       Uiso       1.00
       O31          O  0.4701184  0.8309199  0.9109910    0.00000       Uiso       1.00
      H235          H  0.4930032  0.7773515  0.9183599    0.00000       Uiso       1.00
      H236          H  0.5306849  0.7295736  0.9096215    0.00000       Uiso       1.00
      H237          H  0.5877317  0.7572503  0.8464395    0.00000       Uiso       1.00
      C512          C  0.6970361  0.8049242  0.7671647    0.00000       Uiso       1.00
      C513          C  0.6696213  0.8110021  0.7843409    0.00000       Uiso       1.00
      C514          C  0.6479183  0.8380530  0.7924784    0.00000       Uiso       1.00
      C515          C  0.6205702  0.8437918  0.8085849    0.00000       Uiso       1.00
      C516          C  0.6142482  0.8228449  0.8154786    0.00000       Uiso       1.00
      C517          C  0.6363851  0.7957947  0.8067949    0.00000       Uiso       1.00
      C518          C  0.6639931  0.7891645  0.7931675    0.00000       Uiso       1.00
       O32          O  0.7058898  0.8239632  0.7561324    0.00000       Uiso       1.00
      H238          H  0.6523224  0.8546466  0.7863830    0.00000       Uiso       1.00
      H239          H  0.6045431  0.8647436  0.8153255    0.00000       Uiso       1.00
      H240          H  0.6322185  0.7800205  0.8091921    0.00000       Uiso       1.00
      C519          C  0.6798917  0.6230435  0.8392220    0.00000       Uiso       1.00
      C520          C  0.6859702  0.6443800  0.8289834    0.00000       Uiso       1.00
      C521          C  0.7130215  0.6390325  0.8154187    0.00000       Uiso       1.00
      C522          C  0.7187604  0.6606416  0.8041773    0.00000       Uiso       1.00
      C523          C  0.6978136  0.6879100  0.8047483    0.00000       Uiso       1.00
      C524          C  0.6707633  0.6928228  0.8182006    0.00000       Uiso       1.00
      C525          C  0.6641328  0.6718455  0.8321810    0.00000       Uiso       1.00
       O33          O  0.6989304  0.5951509  0.8370441    0.00000       Uiso       1.00
      H241          H  0.7296156  0.6180356  0.8137274    0.00000       Uiso       1.00
      H242          H  0.7397122  0.6557176  0.7948914    0.00000       Uiso       1.00
      H243          H  0.6549892  0.7127633  0.8164305    0.00000       Uiso       1.00
      C526          C  0.6533710  0.6282911  0.8520375    0.00000       Uiso       1.00
      C527          C  0.6311182  0.6552426  0.8568971    0.00000       Uiso       1.00
      C528          C  0.6040563  0.6606147  0.8704821    0.00000       Uiso       1.00
      C529          C  0.5819946  0.6877357  0.8763235    0.00000       Uiso       1.00
      C530          C  0.5863544  0.7100002  0.8702365    0.00000       Uiso       1.00
      C531          C  0.6137279  0.7041354  0.8568491    0.00000       Uiso       1.00
      C532          C  0.6363534  0.6773506  0.8481711    0.00000       Uiso       1.00
       O34          O  0.6516443  0.6045032  0.8600101    0.00000       Uiso       1.00
      H244          H  0.6001692  0.6436695  0.8764071    0.00000       Uiso       1.00
      H245          H  0.5615940  0.6909993  0.8858241    0.00000       Uiso       1.00
      H246          H  0.6174387  0.7202296  0.8546009    0.00000       Uiso       1.00
      C533          C  0.7183088  0.7784038  0.7587082    0.00000       Uiso       1.00
      C534          C  0.7136102  0.7561508  0.7682671    0.00000       Uiso       1.00
      C535          C  0.7352999  0.7290893  0.7601632    0.00000       Uiso       1.00
      C536          C  0.7302408  0.7070273  0.7710642    0.00000       Uiso       1.00
      C537          C  0.7036166  0.7113866  0.7916011    0.00000       Uiso       1.00
      C538          C  0.6821080  0.7387598  0.7997218    0.00000       Uiso       1.00
      C539          C  0.6862671  0.7613855  0.7868841    0.00000       Uiso       1.00
       O35          O  0.7438232  0.7766777  0.7411663    0.00000       Uiso       1.00
      H247          H  0.7561322  0.7252029  0.7452562    0.00000       Uiso       1.00
      H248          H  0.7473776  0.6866270  0.7634287    0.00000       Uiso       1.00
      H249          H  0.6623033  0.7424701  0.8172783    0.00000       Uiso       1.00
      C540          C  0.5032588  0.8433395  0.8804261    0.00000       Uiso       1.00
      C541          C  0.5302105  0.8386412  0.8630336    0.00000       Uiso       1.00
      C542          C  0.5355829  0.8603307  0.8495567    0.00000       Uiso       1.00
      C543          C  0.5627043  0.8552715  0.8333370    0.00000       Uiso       1.00
      C544          C  0.5849686  0.8286477  0.8316107    0.00000       Uiso       1.00
      C545          C  0.5791035  0.8071394  0.8455970    0.00000       Uiso       1.00
      C546          C  0.5523186  0.8112984  0.8595436    0.00000       Uiso       1.00
       O36          O  0.4794704  0.8688534  0.8866715    0.00000       Uiso       1.00
      H250          H  0.5186383  0.8811630  0.8515933    0.00000       Uiso       1.00
      H251          H  0.5659683  0.8724080  0.8224369    0.00000       Uiso       1.00
      H252          H  0.5951976  0.7873351  0.8470601    0.00000       Uiso       1.00
       B16          B  0.4585460  0.8606898  0.9060997    0.00000       Uiso       1.00
       B17          B  0.7356597  0.8057655  0.7396699    0.00000       Uiso       1.00
       B18          B  0.6807323  0.5835788  0.8503513    0.00000       Uiso       1.00
      C547          C  0.9978995  0.2360460  0.8050838    0.00000       Uiso       1.00
      C548          C  0.0192558  0.2207335  0.8111590    0.00000       Uiso       1.00
      C549          C  0.0139841  0.2177910  0.8382128    0.00000       Uiso       1.00
      C550          C  0.0356106  0.2013664  0.8438607    0.00000       Uiso       1.00
      C551          C  0.0628796  0.1860286  0.8228725    0.00000       Uiso       1.00
      C552          C  0.0677758  0.1889547  0.7958167    0.00000       Uiso       1.00
      C553          C  0.0467560  0.2077305  0.7892441    0.00000       Uiso       1.00
       O37          O  0.9699466  0.2490009  0.8240760    0.00000       Uiso       1.00
      H253          H  0.0877234  0.1753532  0.7800290    0.00000       Uiso       1.00
      C554          C  0.1970460  0.1636335  0.6230346    0.00000       Uiso       1.00
      C555          C  0.1696356  0.1757464  0.6443698    0.00000       Uiso       1.00
      C556          C  0.1479449  0.1945313  0.6389804    0.00000       Uiso       1.00
      C557          C  0.1206062  0.2055883  0.6605898    0.00000       Uiso       1.00
      C558          C  0.1142449  0.1967340  0.6879351    0.00000       Uiso       1.00
      C559          C  0.1363737  0.1774366  0.6928789    0.00000       Uiso       1.00
      C560          C  0.1640063  0.1684361  0.6718706    0.00000       Uiso       1.00
       O38          O  0.2058664  0.1677906  0.5951174    0.00000       Uiso       1.00
      H254          H  0.1523522  0.2007426  0.6179546    0.00000       Uiso       1.00
      H255          H  0.1046213  0.2208970  0.6555989    0.00000       Uiso       1.00
      H256          H  0.1321598  0.1681197  0.7128952    0.00000       Uiso       1.00
      C561          C  0.1798828  0.1084378  0.8221685    0.00000       Uiso       1.00
      C562          C  0.1859607  0.1144641  0.7947651    0.00000       Uiso       1.00
      C563          C  0.2130481  0.1061439  0.7730811    0.00000       Uiso       1.00
      C564          C  0.2187972  0.1114511  0.7457359    0.00000       Uiso       1.00
      C565          C  0.1978143  0.1235959  0.7393681    0.00000       Uiso       1.00
      C566          C  0.1707325  0.1314089  0.7614998    0.00000       Uiso       1.00
      C567          C  0.1641090  0.1290422  0.7891321    0.00000       Uiso       1.00
       O39          O  0.1990508  0.0935477  0.8309033    0.00000       Uiso       1.00
      H257          H  0.2296422  0.0957308  0.7775241    0.00000       Uiso       1.00
      H258          H  0.2397806  0.1057548  0.7297706    0.00000       Uiso       1.00
      H259          H  0.1548961  0.1379139  0.7573318    0.00000       Uiso       1.00
      C568          C  0.1532777  0.1164970  0.8435313    0.00000       Uiso       1.00
      C569          C  0.1310114  0.1320333  0.8388179    0.00000       Uiso       1.00
      C570          C  0.1038865  0.1403470  0.8604611    0.00000       Uiso       1.00
      C571          C  0.0819219  0.1568678  0.8553213    0.00000       Uiso       1.00
      C572          C  0.0863394  0.1669939  0.8286828    0.00000       Uiso       1.00
      C573          C  0.1137332  0.1587326  0.8072025    0.00000       Uiso       1.00
      C574          C  0.1363169  0.1396540  0.8114145    0.00000       Uiso       1.00
       O40          O  0.1516516  0.1083298  0.8690253    0.00000       Uiso       1.00
      H260          H  0.1174615  0.1684422  0.7874103    0.00000       Uiso       1.00
      C575          C  0.2183703  0.1451112  0.6283106    0.00000       Uiso       1.00
      C576          C  0.2136638  0.1383681  0.6552661    0.00000       Uiso       1.00
      C577          C  0.2353726  0.1195613  0.6606243    0.00000       Uiso       1.00
      C578          C  0.2302987  0.1139026  0.6877440    0.00000       Uiso       1.00
      C579          C  0.2036359  0.1282785  0.7100540    0.00000       Uiso       1.00
      C580          C  0.1821259  0.1475034  0.7041873    0.00000       Uiso       1.00
      C581          C  0.1862932  0.1512011  0.6773829    0.00000       Uiso       1.00
       O41          O  0.2439250  0.1351703  0.6045294    0.00000       Uiso       1.00
      H261          H  0.2562215  0.1091205  0.6436738    0.00000       Uiso       1.00
      H262          H  0.2474571  0.0983755  0.6909632    0.00000       Uiso       1.00
      H263          H  0.1623003  0.1608427  0.7203210    0.00000       Uiso       1.00
      C582          C  0.0032148  0.2387999  0.7784566    0.00000       Uiso       1.00
      C583          C  0.0301599  0.2273553  0.7562115    0.00000       Uiso       1.00
      C584          C  0.0355041  0.2302634  0.7291485    0.00000       Uiso       1.00
      C585          C  0.0626169  0.2195389  0.7070895    0.00000       Uiso       1.00
      C586          C  0.0849342  0.2072416  0.7114339    0.00000       Uiso       1.00
      C587          C  0.0790736  0.2049389  0.7388126    0.00000       Uiso       1.00
      C588          C  0.0522678  0.2128091  0.7614520    0.00000       Uiso       1.00
       O42          O  0.9794794  0.2543251  0.7765950    0.00000       Uiso       1.00
      H264          H  0.0185298  0.2406776  0.7252883    0.00000       Uiso       1.00
      H265          H  0.0658097  0.2211876  0.6867242    0.00000       Uiso       1.00
      H266          H  0.0951847  0.1984440  0.7425437    0.00000       Uiso       1.00
       B19          B  0.9585211  0.2605433  0.8057709    0.00000       Uiso       1.00
       B20          B  0.2356914  0.1496613  0.5835843    0.00000       Uiso       1.00
       B21          B  0.1807718  0.0937581  0.8607330    0.00000       Uiso       1.00
      H267          H  0.9931306  0.2283725  0.8550127    0.00000       Uiso       1.00
      H268          H  0.0306293  0.2006345  0.8648453    0.00000       Uiso       1.00
      H269          H  0.0996536  0.1338841  0.8813698    0.00000       Uiso       1.00
      H270          H  0.0615231  0.1617958  0.8724853    0.00000       Uiso       1.00
      C589          C  0.2142122  0.1779315  0.1058656    0.00000       Uiso       1.00
      C590          C  0.2039747  0.2053461  0.1100253    0.00000       Uiso       1.00
      C591          C  0.1904100  0.2270493  0.0965390    0.00000       Uiso       1.00
      C592          C  0.1791693  0.2543969  0.1020411    0.00000       Uiso       1.00
      C593          C  0.1797410  0.2607186  0.1224166    0.00000       Uiso       1.00
      C594          C  0.1931937  0.2385815  0.1360141    0.00000       Uiso       1.00
      C595          C  0.2071733  0.2109740  0.1286646    0.00000       Uiso       1.00
       O43          O  0.2120329  0.1690781  0.0890054    0.00000       Uiso       1.00
      H271          H  0.1887182  0.2226464  0.0816365    0.00000       Uiso       1.00
      H272          H  0.1698834  0.2704244  0.0903752    0.00000       Uiso       1.00
      H273          H  0.1914244  0.2427480  0.1535578    0.00000       Uiso       1.00
      C596          C  0.2691265  0.1950749  0.2328344    0.00000       Uiso       1.00
      C597          C  0.2649661  0.1889968  0.2156578    0.00000       Uiso       1.00
      C598          C  0.2784516  0.1619459  0.2075202    0.00000       Uiso       1.00
      C599          C  0.2729491  0.1562069  0.1914135    0.00000       Uiso       1.00
      C600          C  0.2525740  0.1771538  0.1845195    0.00000       Uiso       1.00
      C601          C  0.2389770  0.2042039  0.1932033    0.00000       Uiso       1.00
      C602          C  0.2463270  0.2108343  0.2068310    0.00000       Uiso       1.00
       O44          O  0.2859868  0.1760359  0.2438669    0.00000       Uiso       1.00
      H274          H  0.2933537  0.1453523  0.2136159    0.00000       Uiso       1.00
      H275          H  0.2846144  0.1352551  0.1846728    0.00000       Uiso       1.00
      H276          H  0.2214334  0.2199781  0.1908059    0.00000       Uiso       1.00
      C603          C  0.1421596  0.3769550  0.1607758    0.00000       Uiso       1.00
      C604          C  0.1593360  0.3556185  0.1710145    0.00000       Uiso       1.00
      C605          C  0.1674746  0.3609662  0.1845796    0.00000       Uiso       1.00
      C606          C  0.1835811  0.3393572  0.1958212    0.00000       Uiso       1.00
      C607          C  0.1904738  0.3120887  0.1952501    0.00000       Uiso       1.00
      C608          C  0.1817890  0.3071758  0.1817974    0.00000       Uiso       1.00
      C609          C  0.1681617  0.3281530  0.1678168    0.00000       Uiso       1.00
       O45          O  0.1311278  0.4048476  0.1629537    0.00000       Uiso       1.00
      H277          H  0.1613805  0.3819631  0.1862709    0.00000       Uiso       1.00
      H278          H  0.1903228  0.3442814  0.2051073    0.00000       Uiso       1.00
      H279          H  0.1841854  0.2872353  0.1835674    0.00000       Uiso       1.00
      C610          C  0.1337024  0.3717071  0.1479598    0.00000       Uiso       1.00
      C611          C  0.1432607  0.3447556  0.1431002    0.00000       Uiso       1.00
      C612          C  0.1351562  0.3393835  0.1295148    0.00000       Uiso       1.00
      C613          C  0.1460568  0.3122624  0.1236734    0.00000       Uiso       1.00
      C614          C  0.1665941  0.2899980  0.1297606    0.00000       Uiso       1.00
      C615          C  0.1747153  0.2958629  0.1431483    0.00000       Uiso       1.00
      C616          C  0.1618778  0.3226477  0.1518264    0.00000       Uiso       1.00
       O46          O  0.1161605  0.3954950  0.1399871    0.00000       Uiso       1.00
      H280          H  0.1202489  0.3563285  0.1235896    0.00000       Uiso       1.00
      H281          H  0.1384208  0.3089987  0.1141724    0.00000       Uiso       1.00
      H282          H  0.1922718  0.2797688  0.1453967    0.00000       Uiso       1.00
      C617          C  0.2554224  0.2215952  0.2412909    0.00000       Uiso       1.00
      C618          C  0.2380297  0.2438482  0.2317318    0.00000       Uiso       1.00
      C619          C  0.2245539  0.2709097  0.2398358    0.00000       Uiso       1.00
      C620          C  0.2083338  0.2929717  0.2289346    0.00000       Uiso       1.00
      C621          C  0.2066060  0.2886122  0.2083975    0.00000       Uiso       1.00
      C622          C  0.2205915  0.2612390  0.2002766    0.00000       Uiso       1.00
      C623          C  0.2345385  0.2386134  0.2131145    0.00000       Uiso       1.00
       O47          O  0.2616683  0.2233215  0.2588331    0.00000       Uiso       1.00
      H283          H  0.2265926  0.2747962  0.2547430    0.00000       Uiso       1.00
      H284          H  0.1974349  0.3133720  0.2365701    0.00000       Uiso       1.00
      H285          H  0.2220539  0.2575285  0.1827200    0.00000       Uiso       1.00
      C624          C  0.2270278  0.1566585  0.1195707    0.00000       Uiso       1.00
      C625          C  0.2318884  0.1613570  0.1369635    0.00000       Uiso       1.00
      C626          C  0.2454733  0.1396676  0.1504406    0.00000       Uiso       1.00
      C627          C  0.2513154  0.1447269  0.1666606    0.00000       Uiso       1.00
      C628          C  0.2452295  0.1713507  0.1683871    0.00000       Uiso       1.00
      C629          C  0.2318425  0.1928590  0.1544006    0.00000       Uiso       1.00
      C630          C  0.2231635  0.1886999  0.1404537    0.00000       Uiso       1.00
       O48          O  0.2349989  0.1311445  0.1133252    0.00000       Uiso       1.00
      H286          H  0.2513976  0.1188353  0.1484040    0.00000       Uiso       1.00
      H287          H  0.2608159  0.1275905  0.1775608    0.00000       Uiso       1.00
      H288          H  0.2295954  0.2126634  0.1529376    0.00000       Uiso       1.00
       B22          B  0.2253392  0.1393081  0.0938967    0.00000       Uiso       1.00
       B23          B  0.2810964  0.1942337  0.2603296    0.00000       Uiso       1.00
       B24          B  0.1146650  0.4164195  0.1496462    0.00000       Uiso       1.00
