data_81
_audit_creation_date              0000-00-00
_audit_creation_method            'LanYouShi'
_symmetry_space_group_name_H-M    'P1'
_cell_length_a                    66.9181976
_cell_length_b                    66.9181976
_cell_length_c                    66.9186020
_cell_angle_alpha                 120.0001984
_cell_angle_beta                  59.9998016
_cell_angle_gamma                 120.0003967
loop_
_atom_site_label
_atom_site_type_symbol
_atom_site_fract_x
_atom_site_fract_y
_atom_site_fract_z
_atom_site_U_iso_or_equiv
_atom_site_adp_type
_atom_site_occupancy
        C1          C  0.5970914  0.4567263  0.5970954    0.00000       Uiso       1.00
        C2          C  0.6096389  0.4585241  0.5736364    0.00000       Uiso       1.00
        C3          C  0.5988603  0.4624532  0.5628606    0.00000       Uiso       1.00
        C4          C  0.5736320  0.4585239  0.6096428    0.00000       Uiso       1.00
        C5          C  0.5627528  0.4622959  0.5988927    0.00000       Uiso       1.00
        C6          C  0.5751494  0.4644836  0.5752754    0.00000       Uiso       1.00
        H1          H  0.5368246  0.3909278  0.3096929    0.00000       Uiso       1.00
        H2          H  0.5631120  0.4570372  0.6287668    0.00000       Uiso       1.00
        H3          H  0.6287630  0.4570376  0.5631165    0.00000       Uiso       1.00
        C7          C  0.5432757  0.4029106  0.2625446    0.00000       Uiso       1.00
        C8          C  0.5414779  0.3903631  0.2752540    0.00000       Uiso       1.00
        C9          C  0.5377057  0.4011125  0.3006551    0.00000       Uiso       1.00
       C10          C  0.5414782  0.4263700  0.2752542    0.00000       Uiso       1.00
       C11          C  0.5375488  0.4371455  0.3007377    0.00000       Uiso       1.00
       C12          C  0.5355177  0.4247291  0.3140628    0.00000       Uiso       1.00
        H4          H  0.6090738  0.6903145  0.5444166    0.00000       Uiso       1.00
        H5          H  0.5429649  0.4368900  0.2651635    0.00000       Uiso       1.00
        H6          H  0.5429645  0.3712389  0.2651631    0.00000       Uiso       1.00
       C13          C  0.2625391  0.4029090  0.5432782    0.00000       Uiso       1.00
       C14          C  0.2752487  0.4263685  0.5414807    0.00000       Uiso       1.00
       C15          C  0.3006504  0.4372468  0.5377056    0.00000       Uiso       1.00
       C16          C  0.2752485  0.3903616  0.5414805    0.00000       Uiso       1.00
       C17          C  0.3007326  0.4011385  0.5375474    0.00000       Uiso       1.00
       C18          C  0.3140591  0.4248489  0.5355143    0.00000       Uiso       1.00
        H7          H  0.5444109  0.4631757  0.6090762    0.00000       Uiso       1.00
        H8          H  0.2651576  0.3712374  0.5429669    0.00000       Uiso       1.00
        H9          H  0.2651580  0.4368884  0.5429673    0.00000       Uiso       1.00
       C19          C  0.5970929  0.7374630  0.5970971    0.00000       Uiso       1.00
       C20          C  0.5736335  0.7247533  0.6096444    0.00000       Uiso       1.00
       C21          C  0.5628574  0.6992698  0.5988654    0.00000       Uiso       1.00
       C22          C  0.6096404  0.7247536  0.5736379    0.00000       Uiso       1.00
       C23          C  0.5988899  0.6993523  0.5627581    0.00000       Uiso       1.00
       C24          C  0.5752724  0.6859441  0.5751544    0.00000       Uiso       1.00
       H10          H  0.3096903  0.4555874  0.5368213    0.00000       Uiso       1.00
       C25          C  0.4999998  0.5000000  0.5000008    0.00000       Uiso       1.00
       H11          H  0.6287646  0.7348444  0.5631182    0.00000       Uiso       1.00
       H12          H  0.5631135  0.7348440  0.6287684    0.00000       Uiso       1.00
       C26          C  0.6138066  0.4651493  0.5373253    0.00000       Uiso       1.00
        F1          F  0.6025715  0.4681847  0.5313616    0.00000       Uiso       1.00
        F2          F  0.6314047  0.4814625  0.5380613    0.00000       Uiso       1.00
        F3          F  0.6185078  0.4477965  0.5236503    0.00000       Uiso       1.00
       C27          C  0.5373234  0.6859843  0.6138133    0.00000       Uiso       1.00
        F4          F  0.5313588  0.6657500  0.6025782    0.00000       Uiso       1.00
        F5          F  0.5380621  0.6880047  0.6314096    0.00000       Uiso       1.00
        F6          F  0.5236473  0.6943633  0.6185175    0.00000       Uiso       1.00
       C28          C  0.5348514  0.4626803  0.3140209    0.00000       Uiso       1.00
        F7          F  0.5318159  0.4686457  0.3342554    0.00000       Uiso       1.00
        F8          F  0.5522038  0.4763553  0.3056413    0.00000       Uiso       1.00
        F9          F  0.5185379  0.4619422  0.3119991    0.00000       Uiso       1.00
       C29          C  0.3140120  0.3861835  0.5348458    0.00000       Uiso       1.00
       F10          F  0.3342478  0.3974131  0.5318075    0.00000       Uiso       1.00
       F11          F  0.3056328  0.3814804  0.5521973    0.00000       Uiso       1.00
       F12          F  0.3119856  0.3685865  0.5185326    0.00000       Uiso       1.00
       C30          C  0.5635034  0.4689737  0.5638888    0.00000       Uiso       1.00
       C31          C  0.5684185  0.4596486  0.5382466    0.00000       Uiso       1.00
       C32          C  0.5577359  0.4639363  0.5276382    0.00000       Uiso       1.00
       C33          C  0.5473131  0.4827015  0.5786008    0.00000       Uiso       1.00
       C34          C  0.5363497  0.4869183  0.5682389    0.00000       Uiso       1.00
       C35          C  0.5415982  0.4775586  0.5426735    0.00000       Uiso       1.00
       H13          H  0.5434790  0.4905494  0.5981912    0.00000       Uiso       1.00
       H14          H  0.5803462  0.4487255  0.5264482    0.00000       Uiso       1.00
       C36          C  0.5310267  0.4361130  0.3415839    0.00000       Uiso       1.00
       C37          C  0.5172896  0.4214001  0.3567899    0.00000       Uiso       1.00
       C38          C  0.5130731  0.4317607  0.3823316    0.00000       Uiso       1.00
       C39          C  0.5403619  0.4617533  0.3529849    0.00000       Uiso       1.00
       C40          C  0.5360745  0.4723592  0.3785619    0.00000       Uiso       1.00
       C41          C  0.5224429  0.4573249  0.3932870    0.00000       Uiso       1.00
       H15          H  0.5512941  0.4735557  0.3419369    0.00000       Uiso       1.00
       H16          H  0.5094338  0.4018091  0.3488812    0.00000       Uiso       1.00
       C42          C  0.3415818  0.4364955  0.5310202    0.00000       Uiso       1.00
       C43          C  0.3567857  0.4526867  0.5172920    0.00000       Uiso       1.00
       C44          C  0.3823305  0.4636537  0.5130749    0.00000       Uiso       1.00
       C45          C  0.3529844  0.4315827  0.5403457    0.00000       Uiso       1.00
       C46          C  0.3785615  0.4422654  0.5360570    0.00000       Uiso       1.00
       C47          C  0.3932877  0.4584039  0.5224359    0.00000       Uiso       1.00
       H17          H  0.3419390  0.4196587  0.5512702    0.00000       Uiso       1.00
       H18          H  0.3488688  0.4565165  0.5094452    0.00000       Uiso       1.00
       C48          C  0.5638861  0.6584215  0.5635083    0.00000       Uiso       1.00
       C49          C  0.5382450  0.6470203  0.5684152    0.00000       Uiso       1.00
       C50          C  0.5276365  0.6214415  0.5577346    0.00000       Uiso       1.00
       C51          C  0.5785976  0.6432151  0.5473251    0.00000       Uiso       1.00
       C52          C  0.5682356  0.6176729  0.5363607    0.00000       Uiso       1.00
       C53          C  0.5426714  0.6067165  0.5416039    0.00000       Uiso       1.00
       H19          H  0.5981875  0.6511245  0.5434966    0.00000       Uiso       1.00
       H20          H  0.5264505  0.6580769  0.5803344    0.00000       Uiso       1.00
       C54          C  0.5021625  0.6102295  0.5629368    0.00000       Uiso       1.00
       C55          C  0.4917427  0.5848010  0.5525373    0.00000       Uiso       1.00
       C56          C  0.5451416  0.4978338  0.3897730    0.00000       Uiso       1.00
       C57          C  0.5405357  0.5082533  0.4152003    0.00000       Uiso       1.00
       H21          H  0.5556950  0.5097700  0.3788599    0.00000       Uiso       1.00
       H22          H  0.4902306  0.6211461  0.5752336    0.00000       Uiso       1.00
       C58          C  0.4637303  0.5733570  0.5590455    0.00000       Uiso       1.00
       F13          F  0.4585457  0.5527571  0.5490587    0.00000       Uiso       1.00
       F14          F  0.4548083  0.5771004  0.5796366    0.00000       Uiso       1.00
       F15          F  0.4571006  0.5817418  0.5532590    0.00000       Uiso       1.00
       C59          C  0.5506037  0.5362657  0.4266379    0.00000       Uiso       1.00
       F16          F  0.5451795  0.5414543  0.4472376    0.00000       Uiso       1.00
       F17          F  0.5714048  0.5428898  0.4182486    0.00000       Uiso       1.00
       F18          F  0.5426801  0.5451896  0.4228943    0.00000       Uiso       1.00
       C60          C  0.5308343  0.4819931  0.5321165    0.00000       Uiso       1.00
       C61          C  0.5364356  0.4730630  0.5065311    0.00000       Uiso       1.00
       C62          C  0.5262516  0.4781285  0.4960834    0.00000       Uiso       1.00
       C63          C  0.5147915  0.4956792  0.5471423    0.00000       Uiso       1.00
       C64          C  0.5044802  0.5003337  0.5365292    0.00000       Uiso       1.00
       C65          C  0.5097864  0.4916669  0.5108029    0.00000       Uiso       1.00
       H23          H  0.4886865  0.4516651  0.4704049    0.00000       Uiso       1.00
       H24          H  0.4636672  0.4680550  0.5280148    0.00000       Uiso       1.00
       C66          C  0.5180103  0.4678825  0.4190415    0.00000       Uiso       1.00
       C67          C  0.5043154  0.4528568  0.4337462    0.00000       Uiso       1.00
       C68          C  0.4996617  0.4634697  0.4593259    0.00000       Uiso       1.00
       C69          C  0.5269517  0.4934687  0.4300949    0.00000       Uiso       1.00
       C70          C  0.5218843  0.5039163  0.4557930    0.00000       Uiso       1.00
       C71          C  0.5083339  0.4891967  0.4710786    0.00000       Uiso       1.00
       H25          H  0.5319357  0.4719794  0.4763745    0.00000       Uiso       1.00
       H26          H  0.5483363  0.5296025  0.4925535    0.00000       Uiso       1.00
       C72          C  0.4190413  0.4691662  0.5180058    0.00000       Uiso       1.00
       C73          C  0.4337452  0.4852124  0.5043219    0.00000       Uiso       1.00
       C74          C  0.4593247  0.4955239  0.4996691    0.00000       Uiso       1.00
       C75          C  0.4300943  0.4635623  0.5269367    0.00000       Uiso       1.00
       C76          C  0.4557926  0.4737440  0.5218695    0.00000       Uiso       1.00
       C77          C  0.4710774  0.4902123  0.5083330    0.00000       Uiso       1.00
       H27          H  0.4763699  0.5363272  0.5319272    0.00000       Uiso       1.00
       H28          H  0.4925643  0.5113006  0.5483347    0.00000       Uiso       1.00
       C78          C  0.5321143  0.5809610  0.5308399    0.00000       Uiso       1.00
       C79          C  0.5065270  0.5699061  0.5364376    0.00000       Uiso       1.00
       C80          C  0.4960796  0.5442064  0.5262535    0.00000       Uiso       1.00
       C81          C  0.5471414  0.5662577  0.5147966    0.00000       Uiso       1.00
       C82          C  0.5365291  0.5406779  0.5044811    0.00000       Uiso       1.00
       C83          C  0.5108014  0.5289229  0.5097890    0.00000       Uiso       1.00
       H29          H  0.4704063  0.5074496  0.4887111    0.00000       Uiso       1.00
       H30          H  0.5280429  0.5236263  0.4636683    0.00000       Uiso       1.00
       C84          C  0.4151994  0.4474563  0.5405095    0.00000       Uiso       1.00
       C85          C  0.3897715  0.4370566  0.5451156    0.00000       Uiso       1.00
       C86          C  0.4225946  0.4903795  0.4951724    0.00000       Uiso       1.00
       C87          C  0.3972304  0.4797155  0.4994638    0.00000       Uiso       1.00
       C88          C  0.5525421  0.4594900  0.4917450    0.00000       Uiso       1.00
       C89          C  0.5629448  0.4548823  0.5021633    0.00000       Uiso       1.00
       C90          C  0.5096228  0.5048268  0.5726104    0.00000       Uiso       1.00
       C91          C  0.5202864  0.5005296  0.5830167    0.00000       Uiso       1.00
       C92          C  0.5726089  0.5774099  0.5096320    0.00000       Uiso       1.00
       C93          C  0.5830129  0.6027755  0.5203000    0.00000       Uiso       1.00
       C94          C  0.4951572  0.4273893  0.4225953    0.00000       Uiso       1.00
       C95          C  0.4994527  0.4169837  0.3972294    0.00000       Uiso       1.00
       H31          H  0.4844911  0.4154584  0.4335349    0.00000       Uiso       1.00
       H32          H  0.4335330  0.5025916  0.4845150    0.00000       Uiso       1.00
       H33          H  0.3788573  0.4247520  0.5556599    0.00000       Uiso       1.00
       H34          H  0.4974108  0.5154847  0.5845446    0.00000       Uiso       1.00
       H35          H  0.5752502  0.4443379  0.4902319    0.00000       Uiso       1.00
       H36          H  0.5845403  0.5664716  0.4974180    0.00000       Uiso       1.00
       C96          C  0.5590617  0.4494356  0.4637317    0.00000       Uiso       1.00
       F19          F  0.5722549  0.4390375  0.4550967    0.00000       Uiso       1.00
       F20          F  0.5416858  0.4365509  0.4588214    0.00000       Uiso       1.00
       F21          F  0.5680708  0.4652755  0.4565397    0.00000       Uiso       1.00
       C97          C  0.5141969  0.5110584  0.6109877    0.00000       Uiso       1.00
       F22          F  0.5009696  0.5214182  0.6196217    0.00000       Uiso       1.00
       F23          F  0.5053821  0.4954739  0.6184873    0.00000       Uiso       1.00
       F24          F  0.5317312  0.5240771  0.6155601    0.00000       Uiso       1.00
       C98          C  0.6109841  0.6141235  0.5142121    0.00000       Uiso       1.00
       F25          F  0.6196148  0.5991676  0.5009863    0.00000       Uiso       1.00
       F26          F  0.6184888  0.6283932  0.5053962    0.00000       Uiso       1.00
       F27          F  0.6155547  0.6232100  0.5317470    0.00000       Uiso       1.00
       C99          C  0.4889089  0.3890133  0.3858837    0.00000       Uiso       1.00
       F28          F  0.4785439  0.3803834  0.4008406    0.00000       Uiso       1.00
       F29          F  0.4758919  0.3844485  0.3767976    0.00000       Uiso       1.00
       F30          F  0.5044858  0.3815024  0.3716141    0.00000       Uiso       1.00
      C100          C  0.4266388  0.4409367  0.5505638    0.00000       Uiso       1.00
       F31          F  0.4116824  0.4277439  0.5609623    0.00000       Uiso       1.00
       F32          F  0.4406615  0.4319273  0.5347239    0.00000       Uiso       1.00
       F33          F  0.4360409  0.4583126  0.5634480    0.00000       Uiso       1.00
      C101          C  0.3858863  0.4858068  0.4889278    0.00000       Uiso       1.00
       F34          F  0.4008441  0.4990337  0.4785690    0.00000       Uiso       1.00
       F35          F  0.3768005  0.4682731  0.4759070    0.00000       Uiso       1.00
       F36          F  0.3716165  0.4946229  0.5045083    0.00000       Uiso       1.00
      C102          C  0.6743373  0.4567263  0.5970954    0.00000       Uiso       1.00
      C103          C  0.6870467  0.4585239  0.6096428    0.00000       Uiso       1.00
      C104          C  0.7125304  0.4624530  0.5988641    0.00000       Uiso       1.00
      C105          C  0.6870469  0.4585241  0.5736364    0.00000       Uiso       1.00
      C106          C  0.7124484  0.4622962  0.5627571    0.00000       Uiso       1.00
      C107          C  0.7258568  0.4644836  0.5751535    0.00000       Uiso       1.00
       H37          H  0.9562094  0.3909265  0.5368274    0.00000       Uiso       1.00
       H38          H  0.6769562  0.4570376  0.5631165    0.00000       Uiso       1.00
       H39          H  0.6769558  0.4570372  0.6287667    0.00000       Uiso       1.00
      C108          C  0.0088893  0.4029090  0.5432782    0.00000       Uiso       1.00
      C109          C  0.9854305  0.3903615  0.5414805    0.00000       Uiso       1.00
      C110          C  0.9745510  0.4011112  0.5377084    0.00000       Uiso       1.00
      C111          C  0.0214369  0.4263684  0.5414807    0.00000       Uiso       1.00
      C112          C  0.0106582  0.4371441  0.5375516    0.00000       Uiso       1.00
      C113          C  0.9869481  0.4247278  0.5355205    0.00000       Uiso       1.00
       H40          H  0.9486248  0.6903142  0.6090776    0.00000       Uiso       1.00
       H41          H  0.0405610  0.4368884  0.5429673    0.00000       Uiso       1.00
       H42          H  0.9749104  0.3712373  0.5429669    0.00000       Uiso       1.00
      C114          C  0.0088909  0.4029109  0.2625449    0.00000       Uiso       1.00
      C115          C  0.0214383  0.4263702  0.2752545    0.00000       Uiso       1.00
      C116          C  0.0106901  0.4372483  0.3006560    0.00000       Uiso       1.00
      C117          C  0.9854318  0.3903632  0.2752542    0.00000       Uiso       1.00
      C118          C  0.9746577  0.4011400  0.3007382    0.00000       Uiso       1.00
      C119          C  0.9870750  0.4248504  0.3140646    0.00000       Uiso       1.00
       H43          H  0.7214866  0.4631761  0.5444155    0.00000       Uiso       1.00
       H44          H  0.9749119  0.3712392  0.2651634    0.00000       Uiso       1.00
       H45          H  0.0405625  0.4368902  0.2651638    0.00000       Uiso       1.00
      C120          C  0.9550740  0.7374631  0.5970971    0.00000       Uiso       1.00
      C121          C  0.9532765  0.7247536  0.5736379    0.00000       Uiso       1.00
      C122          C  0.9493477  0.6992701  0.5628618    0.00000       Uiso       1.00
      C123          C  0.9532762  0.7247534  0.6096444    0.00000       Uiso       1.00
      C124          C  0.9495051  0.6993521  0.5988939    0.00000       Uiso       1.00
      C125          C  0.9473180  0.6859441  0.5752766    0.00000       Uiso       1.00
       H46          H  0.0208751  0.4555888  0.3096959    0.00000       Uiso       1.00
      C126          C  0.9117988  0.5000000  0.5000040    0.00000       Uiso       1.00
       H47          H  0.9547628  0.7348441  0.6287684    0.00000       Uiso       1.00
       H48          H  0.9547632  0.7348445  0.5631182    0.00000       Uiso       1.00
      C127          C  0.7258155  0.4651489  0.6138103    0.00000       Uiso       1.00
       F37          F  0.7460498  0.4681843  0.6025752    0.00000       Uiso       1.00
       F38          F  0.7237948  0.4814619  0.6314082    0.00000       Uiso       1.00
       F39          F  0.7174364  0.4477960  0.6185113    0.00000       Uiso       1.00
      C128          C  0.9466482  0.6859848  0.5373280    0.00000       Uiso       1.00
       F40          F  0.9436136  0.6657505  0.5313634    0.00000       Uiso       1.00
       F41          F  0.9303336  0.6880053  0.5380669    0.00000       Uiso       1.00
       F42          F  0.9639995  0.6943640  0.5236520    0.00000       Uiso       1.00
      C129          C  0.0256074  0.4626790  0.5348543    0.00000       Uiso       1.00
       F43          F  0.0143738  0.4686446  0.5318189    0.00000       Uiso       1.00
       F44          F  0.0303097  0.4763538  0.5522065    0.00000       Uiso       1.00
       F45          F  0.0432048  0.4619410  0.5185408    0.00000       Uiso       1.00
      C130          C  0.9491248  0.3861849  0.3140174    0.00000       Uiso       1.00
       F46          F  0.9431570  0.3974144  0.3342531    0.00000       Uiso       1.00
       F47          F  0.9354492  0.3814819  0.3056384    0.00000       Uiso       1.00
       F48          F  0.9498672  0.3685878  0.3119909    0.00000       Uiso       1.00
      C131          C  0.7533798  0.4689737  0.5635076    0.00000       Uiso       1.00
      C132          C  0.7647818  0.4596485  0.5684225    0.00000       Uiso       1.00
      C133          C  0.7903607  0.4639362  0.5577399    0.00000       Uiso       1.00
      C134          C  0.7685861  0.4827017  0.5473174    0.00000       Uiso       1.00
      C135          C  0.7941284  0.4869185  0.5363540    0.00000       Uiso       1.00
      C136          C  0.8050855  0.4775587  0.5416024    0.00000       Uiso       1.00
       H49          H  0.7606776  0.4905497  0.5434834    0.00000       Uiso       1.00
       H50          H  0.7537293  0.4487252  0.5803500    0.00000       Uiso       1.00
      C137          C  0.9753019  0.4361119  0.5310297    0.00000       Uiso       1.00
      C138          C  0.9591199  0.4213992  0.5172928    0.00000       Uiso       1.00
      C139          C  0.9481553  0.4317600  0.5130764    0.00000       Uiso       1.00
      C140          C  0.9802061  0.4617522  0.5403650    0.00000       Uiso       1.00
      C141          C  0.9695224  0.4723583  0.5360777    0.00000       Uiso       1.00
      C142          C  0.9533945  0.4573242  0.5224463    0.00000       Uiso       1.00
       H51          H  0.9921243  0.4735545  0.5512971    0.00000       Uiso       1.00
       H52          H  0.9552932  0.4018082  0.5094370    0.00000       Uiso       1.00
      C143          C  0.9756930  0.4364968  0.3415871    0.00000       Uiso       1.00
      C144          C  0.9904087  0.4526877  0.3567909    0.00000       Uiso       1.00
      C145          C  0.9800479  0.4636546  0.3823355    0.00000       Uiso       1.00
      C146          C  0.9500519  0.4315839  0.3529896    0.00000       Uiso       1.00
      C147          C  0.9394462  0.4422664  0.3785666    0.00000       Uiso       1.00
      C148          C  0.9544798  0.4584048  0.3932926    0.00000       Uiso       1.00
       H53          H  0.9382486  0.4196600  0.3419444    0.00000       Uiso       1.00
       H54          H  0.0100019  0.4565175  0.3488739    0.00000       Uiso       1.00
      C149          C  0.9428278  0.6584216  0.5638902    0.00000       Uiso       1.00
      C150          C  0.9521608  0.6470206  0.5382493    0.00000       Uiso       1.00
      C151          C  0.9478707  0.6214417  0.5276408    0.00000       Uiso       1.00
      C152          C  0.9290928  0.6432149  0.5786016    0.00000       Uiso       1.00
      C153          C  0.9248766  0.6176727  0.5682396    0.00000       Uiso       1.00
      C154          C  0.9342414  0.6067165  0.5426755    0.00000       Uiso       1.00
       H55          H  0.9212406  0.6511242  0.5981914    0.00000       Uiso       1.00
       H56          H  0.9630926  0.6580772  0.5264550    0.00000       Uiso       1.00
      C155          C  0.9569306  0.6102299  0.5021670    0.00000       Uiso       1.00
      C156          C  0.9523211  0.5848014  0.4917473    0.00000       Uiso       1.00
      C157          C  0.9747190  0.4978329  0.5451449    0.00000       Uiso       1.00
      C158          C  0.9643171  0.5082526  0.5405391    0.00000       Uiso       1.00
       H57          H  0.9870151  0.5097690  0.5556981    0.00000       Uiso       1.00
       H58          H  0.9674823  0.6211467  0.4902353    0.00000       Uiso       1.00
      C159          C  0.9623812  0.5733576  0.4637351    0.00000       Uiso       1.00
       F49          F  0.9569529  0.5527578  0.4585504    0.00000       Uiso       1.00
       F50          F  0.9544556  0.5771012  0.4548132    0.00000       Uiso       1.00
       F51          F  0.9831825  0.5817424  0.4571053    0.00000       Uiso       1.00
      C160          C  0.9708241  0.5362651  0.5506072    0.00000       Uiso       1.00
       F52          F  0.9608373  0.5414538  0.5451831    0.00000       Uiso       1.00
       F53          F  0.9650364  0.5428889  0.5714080    0.00000       Uiso       1.00
       F54          F  0.9914154  0.5451889  0.5426835    0.00000       Uiso       1.00
      C161          C  0.8308412  0.4819932  0.5308385    0.00000       Uiso       1.00
      C162          C  0.8418951  0.4730628  0.5364396    0.00000       Uiso       1.00
      C163          C  0.8675926  0.4781283  0.5262555    0.00000       Uiso       1.00
      C164          C  0.8455443  0.4956794  0.5147958    0.00000       Uiso       1.00
      C165          C  0.8711233  0.5003339  0.5044845    0.00000       Uiso       1.00
      C166          C  0.8828768  0.4916670  0.5097905    0.00000       Uiso       1.00
       H59          H  0.9043729  0.4516651  0.4886905    0.00000       Uiso       1.00
       H60          H  0.8881720  0.4680554  0.4636717    0.00000       Uiso       1.00
      C167          C  0.9426303  0.4678820  0.5180139    0.00000       Uiso       1.00
      C168          C  0.9265944  0.4528565  0.5043192    0.00000       Uiso       1.00
      C169          C  0.9162814  0.4634695  0.4996656    0.00000       Uiso       1.00
      C170          C  0.9482217  0.4934681  0.5269552    0.00000       Uiso       1.00
      C171          C  0.9380386  0.5039159  0.5218880    0.00000       Uiso       1.00
      C172          C  0.9215836  0.4891965  0.5083379    0.00000       Uiso       1.00
       H61          H  0.8754683  0.4719791  0.5319394    0.00000       Uiso       1.00
       H62          H  0.9005123  0.5296022  0.5483401    0.00000       Uiso       1.00
      C173          C  0.9439186  0.4691669  0.4190460    0.00000       Uiso       1.00
      C174          C  0.9589449  0.4852129  0.4337498    0.00000       Uiso       1.00
      C175          C  0.9483297  0.4955242  0.4593291    0.00000       Uiso       1.00
      C176          C  0.9183307  0.4635630  0.4300990    0.00000       Uiso       1.00
      C177          C  0.9078812  0.4737445  0.4557971    0.00000       Uiso       1.00
      C178          C  0.9226014  0.4902126  0.4710817    0.00000       Uiso       1.00
       H63          H  0.9398300  0.5363276  0.4763743    0.00000       Uiso       1.00
       H64          H  0.8822010  0.5113010  0.4925687    0.00000       Uiso       1.00
      C179          C  0.9298069  0.5809610  0.5321184    0.00000       Uiso       1.00
      C180          C  0.9387415  0.5699064  0.5065314    0.00000       Uiso       1.00
      C181          C  0.9336732  0.5442067  0.4960840    0.00000       Uiso       1.00
      C182          C  0.9161197  0.5662575  0.5471453    0.00000       Uiso       1.00
      C183          C  0.9114674  0.5406778  0.5365331    0.00000       Uiso       1.00
      C184          C  0.9201321  0.5289229  0.5108055    0.00000       Uiso       1.00
       H65          H  0.9601319  0.5074497  0.4704106    0.00000       Uiso       1.00
       H66          H  0.9437150  0.5236260  0.5280466    0.00000       Uiso       1.00
      C185          C  0.9035465  0.4474572  0.4152043    0.00000       Uiso       1.00
      C186          C  0.9139687  0.4370576  0.3897765    0.00000       Uiso       1.00
      C187          C  0.9844122  0.4903800  0.4225992    0.00000       Uiso       1.00
      C188          C  0.9948211  0.4797162  0.3972352    0.00000       Uiso       1.00
      C189          C  0.8270016  0.4594897  0.5525459    0.00000       Uiso       1.00
      C190          C  0.8015728  0.4548820  0.5629486    0.00000       Uiso       1.00
      C191          C  0.8343926  0.5048273  0.5096273    0.00000       Uiso       1.00
      C192          C  0.8090252  0.5005300  0.5202910    0.00000       Uiso       1.00
      C193          C  0.9069689  0.5774096  0.5726127    0.00000       Uiso       1.00
      C194          C  0.9112626  0.6027751  0.5830167    0.00000       Uiso       1.00
      C195          C  0.9214359  0.4273889  0.4951609    0.00000       Uiso       1.00
      C196          C  0.9321006  0.4169832  0.4994563    0.00000       Uiso       1.00
       H67          H  0.9092314  0.4154581  0.4844949    0.00000       Uiso       1.00
       H68          H  0.9963434  0.5025919  0.4335375    0.00000       Uiso       1.00
       H69          H  0.9020336  0.4247531  0.3788626    0.00000       Uiso       1.00
       H70          H  0.8453285  0.5154853  0.4974155    0.00000       Uiso       1.00
       H71          H  0.7906541  0.4443374  0.5752538    0.00000       Uiso       1.00
       H72          H  0.8963130  0.5664712  0.5845439    0.00000       Uiso       1.00
      C197          C  0.8384409  0.4494351  0.5590653    0.00000       Uiso       1.00
       F55          F  0.8234845  0.4390368  0.5722583    0.00000       Uiso       1.00
       F56          F  0.8478423  0.4365504  0.5416895    0.00000       Uiso       1.00
       F57          F  0.8524639  0.4652749  0.5680743    0.00000       Uiso       1.00
      C198          C  0.7976725  0.5110590  0.5142016    0.00000       Uiso       1.00
       F58          F  0.8126259  0.5214190  0.5009745    0.00000       Uiso       1.00
       F59          F  0.7834032  0.4954746  0.5053869    0.00000       Uiso       1.00
       F60          F  0.7885846  0.5240776  0.5317359    0.00000       Uiso       1.00
      C199          C  0.9007273  0.6141229  0.6109877    0.00000       Uiso       1.00
       F61          F  0.8903664  0.5991670  0.6196184    0.00000       Uiso       1.00
       F62          F  0.9163084  0.6283926  0.6184923    0.00000       Uiso       1.00
       F63          F  0.8877082  0.6232095  0.6155584    0.00000       Uiso       1.00
      C200          C  0.9260195  0.3890127  0.4889125    0.00000       Uiso       1.00
       F64          F  0.9127977  0.3803830  0.4785476    0.00000       Uiso       1.00
       F65          F  0.9435579  0.3844479  0.4758955    0.00000       Uiso       1.00
       F66          F  0.9172013  0.3815017  0.5044892    0.00000       Uiso       1.00
      C201          C  0.8755329  0.4409375  0.4266438    0.00000       Uiso       1.00
       F67          F  0.8668979  0.4277448  0.4116875    0.00000       Uiso       1.00
       F68          F  0.8683407  0.4319279  0.4406662    0.00000       Uiso       1.00
       F69          F  0.8706228  0.4583135  0.4360458    0.00000       Uiso       1.00
      C202          C  0.0227923  0.4858075  0.3858911    0.00000       Uiso       1.00
       F70          F  0.0314203  0.4990343  0.4008488    0.00000       Uiso       1.00
       F71          F  0.0273651  0.4682738  0.3768053    0.00000       Uiso       1.00
       F72          F  0.0302979  0.4946238  0.3716214    0.00000       Uiso       1.00
      C203          C  0.5970908  0.4567259  0.6743410    0.00000       Uiso       1.00
      C204          C  0.5736315  0.4585234  0.6870503    0.00000       Uiso       1.00
      C205          C  0.5628555  0.4624523  0.7125338    0.00000       Uiso       1.00
      C206          C  0.6096382  0.4585234  0.6870503    0.00000       Uiso       1.00
      C207          C  0.5988880  0.4622953  0.7124516    0.00000       Uiso       1.00
      C208          C  0.5752704  0.4644827  0.7258601    0.00000       Uiso       1.00
       H73          H  0.3096848  0.3909239  0.9562110    0.00000       Uiso       1.00
       H74          H  0.6287624  0.4570369  0.6769597    0.00000       Uiso       1.00
       H75          H  0.5631117  0.4570369  0.6769597    0.00000       Uiso       1.00
      C209          C  0.2625358  0.4029058  0.0088904    0.00000       Uiso       1.00
      C210          C  0.2752455  0.3903588  0.9854318    0.00000       Uiso       1.00
      C211          C  0.3006469  0.4011085  0.9745525    0.00000       Uiso       1.00
      C212          C  0.2752453  0.4263651  0.0214379    0.00000       Uiso       1.00
      C213          C  0.3007290  0.4371409  0.0106592    0.00000       Uiso       1.00
      C214          C  0.3140546  0.4247250  0.9869494    0.00000       Uiso       1.00
       H76          H  0.5444100  0.6903121  0.9486270    0.00000       Uiso       1.00
       H77          H  0.2651545  0.4368850  0.0405619    0.00000       Uiso       1.00
       H78          H  0.2651547  0.3712347  0.9749119    0.00000       Uiso       1.00
      C215          C  0.5432710  0.4029060  0.0088903    0.00000       Uiso       1.00
      C216          C  0.5414734  0.4263653  0.0214377    0.00000       Uiso       1.00
      C217          C  0.5376984  0.4372437  0.0106897    0.00000       Uiso       1.00
      C218          C  0.5414737  0.3903590  0.9854317    0.00000       Uiso       1.00
      C219          C  0.5375407  0.4011359  0.9746577    0.00000       Uiso       1.00
      C220          C  0.5355074  0.4248463  0.9870751    0.00000       Uiso       1.00
       H79          H  0.6090714  0.4631751  0.7214897    0.00000       Uiso       1.00
       H80          H  0.5429602  0.3712348  0.9749117    0.00000       Uiso       1.00
       H81          H  0.5429600  0.4368851  0.0405618    0.00000       Uiso       1.00
      C221          C  0.5970908  0.7374609  0.9550760    0.00000       Uiso       1.00
      C222          C  0.6096382  0.7247513  0.9532783    0.00000       Uiso       1.00
      C223          C  0.5988592  0.6992677  0.9493495    0.00000       Uiso       1.00
      C224          C  0.5736315  0.7247513  0.9532783    0.00000       Uiso       1.00
      C225          C  0.5627517  0.6993500  0.9495072    0.00000       Uiso       1.00
      C226          C  0.5751480  0.6859418  0.9473199    0.00000       Uiso       1.00
       H82          H  0.5368140  0.4555842  0.0208747    0.00000       Uiso       1.00
      C227          C  0.4999942  0.4999975  0.9118004    0.00000       Uiso       1.00
       H83          H  0.5631116  0.7348421  0.9547650    0.00000       Uiso       1.00
       H84          H  0.6287622  0.7348421  0.9547650    0.00000       Uiso       1.00
      C228          C  0.5373201  0.4651482  0.7258189    0.00000       Uiso       1.00
       F73          F  0.5313562  0.4681834  0.7460531    0.00000       Uiso       1.00
       F74          F  0.5380561  0.4814614  0.7237983    0.00000       Uiso       1.00
       F75          F  0.5236450  0.4477953  0.7174399    0.00000       Uiso       1.00
      C229          C  0.6138072  0.6859823  0.9466500    0.00000       Uiso       1.00
       F76          F  0.6025720  0.6657480  0.9436153    0.00000       Uiso       1.00
       F77          F  0.6314037  0.6880029  0.9303353    0.00000       Uiso       1.00
       F78          F  0.6185112  0.6943613  0.9640010    0.00000       Uiso       1.00
      C230          C  0.3140122  0.4626756  0.0256083    0.00000       Uiso       1.00
       F79          F  0.3342469  0.4686413  0.0143748    0.00000       Uiso       1.00
       F80          F  0.3056326  0.4763505  0.0303108    0.00000       Uiso       1.00
       F81          F  0.3119903  0.4619374  0.0432055    0.00000       Uiso       1.00
      C231          C  0.5348392  0.3861811  0.9491251    0.00000       Uiso       1.00
       F82          F  0.5318009  0.3974107  0.9431574    0.00000       Uiso       1.00
       F83          F  0.5521909  0.3814781  0.9354495    0.00000       Uiso       1.00
       F84          F  0.5185259  0.3685839  0.9498675    0.00000       Uiso       1.00
      C232          C  0.5638835  0.4689725  0.7533828    0.00000       Uiso       1.00
      C233          C  0.5382411  0.4596473  0.7647848    0.00000       Uiso       1.00
      C234          C  0.5276325  0.4639347  0.7903634    0.00000       Uiso       1.00
      C235          C  0.5785955  0.4827003  0.7685889    0.00000       Uiso       1.00
      C236          C  0.5682334  0.4869169  0.7941310    0.00000       Uiso       1.00
      C237          C  0.5426678  0.4775570  0.8050880    0.00000       Uiso       1.00
       H85          H  0.5981861  0.4905484  0.7606805    0.00000       Uiso       1.00
       H86          H  0.5264427  0.4487242  0.7537324    0.00000       Uiso       1.00
      C238          C  0.3415759  0.4361092  0.9753032    0.00000       Uiso       1.00
      C239          C  0.3567821  0.4213965  0.9591214    0.00000       Uiso       1.00
      C240          C  0.3823240  0.4317573  0.9481568    0.00000       Uiso       1.00
      C241          C  0.3529770  0.4617495  0.9802074    0.00000       Uiso       1.00
      C242          C  0.3785543  0.4723556  0.9695238    0.00000       Uiso       1.00
      C243          C  0.3932795  0.4573216  0.9533960    0.00000       Uiso       1.00
       H87          H  0.3419289  0.4735517  0.9921257    0.00000       Uiso       1.00
       H88          H  0.3488735  0.4018055  0.9552946    0.00000       Uiso       1.00
      C244          C  0.5310134  0.4364929  0.9756932    0.00000       Uiso       1.00
      C245          C  0.5172850  0.4526839  0.9904089    0.00000       Uiso       1.00
      C246          C  0.5130681  0.4636509  0.9800484    0.00000       Uiso       1.00
      C247          C  0.5403391  0.4315802  0.9500524    0.00000       Uiso       1.00
      C248          C  0.5360505  0.4422630  0.9394469    0.00000       Uiso       1.00
      C249          C  0.5224292  0.4584014  0.9544805    0.00000       Uiso       1.00
       H89          H  0.5512637  0.4196564  0.9382491    0.00000       Uiso       1.00
       H90          H  0.5094378  0.4565132  0.0100018    0.00000       Uiso       1.00
      C250          C  0.5635019  0.6584193  0.9428296    0.00000       Uiso       1.00
      C251          C  0.5684088  0.6470180  0.9521624    0.00000       Uiso       1.00
      C252          C  0.5577281  0.6214391  0.9478723    0.00000       Uiso       1.00
      C253          C  0.5473186  0.6432128  0.9290949    0.00000       Uiso       1.00
      C254          C  0.5363542  0.6176705  0.9248786    0.00000       Uiso       1.00
      C255          C  0.5415974  0.6067141  0.9342432    0.00000       Uiso       1.00
       H91          H  0.5434902  0.6511222  0.9212429    0.00000       Uiso       1.00
       H92          H  0.5803280  0.6580746  0.9630941    0.00000       Uiso       1.00
      C256          C  0.5629303  0.6102271  0.9569319    0.00000       Uiso       1.00
      C257          C  0.5525308  0.5847985  0.9523224    0.00000       Uiso       1.00
      C258          C  0.3897653  0.4978303  0.9747205    0.00000       Uiso       1.00
      C259          C  0.4151928  0.5082500  0.9643187    0.00000       Uiso       1.00
       H93          H  0.3788521  0.5097663  0.9870166    0.00000       Uiso       1.00
       H94          H  0.5752272  0.6211438  0.9674835    0.00000       Uiso       1.00
      C260          C  0.5590390  0.5733545  0.9623824    0.00000       Uiso       1.00
       F85          F  0.5490520  0.5527548  0.9569539    0.00000       Uiso       1.00
       F86          F  0.5796303  0.5770982  0.9544567    0.00000       Uiso       1.00
       F87          F  0.5532523  0.5817392  0.9831835    0.00000       Uiso       1.00
      C261          C  0.4266305  0.5362625  0.9708256    0.00000       Uiso       1.00
       F88          F  0.4472303  0.5414512  0.9608389    0.00000       Uiso       1.00
       F89          F  0.4182412  0.5428865  0.9650382    0.00000       Uiso       1.00
       F90          F  0.4228867  0.5451861  0.9914168    0.00000       Uiso       1.00
      C262          C  0.5321106  0.4819914  0.8308435    0.00000       Uiso       1.00
      C263          C  0.5065249  0.4730610  0.8418974    0.00000       Uiso       1.00
      C264          C  0.4960770  0.4781262  0.8675945    0.00000       Uiso       1.00
      C265          C  0.5471364  0.4956774  0.8455465    0.00000       Uiso       1.00
      C266          C  0.5365231  0.5003316  0.8711253    0.00000       Uiso       1.00
      C267          C  0.5107965  0.4916646  0.8828787    0.00000       Uiso       1.00
       H95          H  0.4703982  0.4516625  0.9043744    0.00000       Uiso       1.00
       H96          H  0.5280086  0.4680528  0.8881736    0.00000       Uiso       1.00
      C268          C  0.4190342  0.4678794  0.9426318    0.00000       Uiso       1.00
      C269          C  0.4337390  0.4528538  0.9265960    0.00000       Uiso       1.00
      C270          C  0.4593190  0.4634670  0.9162830    0.00000       Uiso       1.00
      C271          C  0.4300876  0.4934655  0.9482233    0.00000       Uiso       1.00
      C272          C  0.4557860  0.5039133  0.9380403    0.00000       Uiso       1.00
      C273          C  0.4710718  0.4891940  0.9215852    0.00000       Uiso       1.00
       H97          H  0.4763680  0.4719770  0.8754703    0.00000       Uiso       1.00
       H98          H  0.4925469  0.5296000  0.9005142    0.00000       Uiso       1.00
      C274          C  0.5179991  0.4691637  0.9439196    0.00000       Uiso       1.00
      C275          C  0.5043151  0.4852097  0.9589458    0.00000       Uiso       1.00
      C276          C  0.4996623  0.4955212  0.9483309    0.00000       Uiso       1.00
      C277          C  0.5269302  0.4635600  0.9183319    0.00000       Uiso       1.00
      C278          C  0.5218630  0.4737417  0.9078826    0.00000       Uiso       1.00
      C279          C  0.5083264  0.4902098  0.9226028    0.00000       Uiso       1.00
       H99          H  0.5319206  0.5363248  0.9398313    0.00000       Uiso       1.00
      H100          H  0.5483286  0.5112986  0.8822027    0.00000       Uiso       1.00
      C280          C  0.5308334  0.5809587  0.9298086    0.00000       Uiso       1.00
      C281          C  0.5364310  0.5699037  0.9387430    0.00000       Uiso       1.00
      C282          C  0.5262469  0.5442041  0.9336747    0.00000       Uiso       1.00
      C283          C  0.5147900  0.5662553  0.9161215    0.00000       Uiso       1.00
      C284          C  0.5044745  0.5406755  0.9114693    0.00000       Uiso       1.00
      C285          C  0.5097824  0.5289204  0.9201338    0.00000       Uiso       1.00
      H101          H  0.4887041  0.5074468  0.9601331    0.00000       Uiso       1.00
      H102          H  0.4636613  0.5236235  0.9437166    0.00000       Uiso       1.00
      C286          C  0.5405032  0.4474542  0.9035476    0.00000       Uiso       1.00
      C287          C  0.5451092  0.4370544  0.9139696    0.00000       Uiso       1.00
      C288          C  0.4951654  0.4903765  0.9844130    0.00000       Uiso       1.00
      C289          C  0.4994566  0.4797125  0.9948216    0.00000       Uiso       1.00
      C290          C  0.4917389  0.4594880  0.8270040    0.00000       Uiso       1.00
      C291          C  0.5021574  0.4548805  0.8015754    0.00000       Uiso       1.00
      C292          C  0.5726048  0.5048253  0.8343948    0.00000       Uiso       1.00
      C293          C  0.5830112  0.5005282  0.8090276    0.00000       Uiso       1.00
      C294          C  0.5096254  0.5774075  0.9069710    0.00000       Uiso       1.00
      C295          C  0.5202935  0.6027731  0.9112647    0.00000       Uiso       1.00
      C296          C  0.4225881  0.4273863  0.9214374    0.00000       Uiso       1.00
      C297          C  0.3972221  0.4169805  0.9321021    0.00000       Uiso       1.00
      H103          H  0.4335279  0.4154555  0.9092329    0.00000       Uiso       1.00
      H104          H  0.4845078  0.5025885  0.9963441    0.00000       Uiso       1.00
      H105          H  0.5556538  0.4247499  0.9020345    0.00000       Uiso       1.00
      H106          H  0.5845389  0.5154831  0.8453305    0.00000       Uiso       1.00
      H107          H  0.4902260  0.4443361  0.7906569    0.00000       Uiso       1.00
      H108          H  0.4974115  0.5664693  0.8963153    0.00000       Uiso       1.00
      C298          C  0.4637253  0.4494333  0.8384433    0.00000       Uiso       1.00
       F91          F  0.4550904  0.4390352  0.8234870    0.00000       Uiso       1.00
       F92          F  0.4588150  0.4365486  0.8478446    0.00000       Uiso       1.00
       F93          F  0.4565332  0.4652731  0.8524663    0.00000       Uiso       1.00
      C299          C  0.6109825  0.5110573  0.7976750    0.00000       Uiso       1.00
       F94          F  0.6196163  0.5214171  0.8126281    0.00000       Uiso       1.00
       F95          F  0.6184822  0.4954729  0.7834056    0.00000       Uiso       1.00
       F96          F  0.6155549  0.5240760  0.7885871    0.00000       Uiso       1.00
      C300          C  0.5142056  0.6141211  0.9007297    0.00000       Uiso       1.00
       F97          F  0.5009798  0.5991653  0.8903689    0.00000       Uiso       1.00
       F98          F  0.5053896  0.6283907  0.9163107    0.00000       Uiso       1.00
       F99          F  0.5317408  0.6232079  0.8877108    0.00000       Uiso       1.00
      C301          C  0.3858763  0.3890100  0.9260209    0.00000       Uiso       1.00
      F100          F  0.4008334  0.3803804  0.9127992    0.00000       Uiso       1.00
      F101          F  0.3767900  0.3844450  0.9435592    0.00000       Uiso       1.00
      F102          F  0.3716067  0.3814992  0.9172029    0.00000       Uiso       1.00
      C302          C  0.5505577  0.4409347  0.8755343    0.00000       Uiso       1.00
      F103          F  0.5609563  0.4277421  0.8668993    0.00000       Uiso       1.00
      F104          F  0.5347178  0.4319253  0.8683422    0.00000       Uiso       1.00
      F105          F  0.5634420  0.4583108  0.8706242    0.00000       Uiso       1.00
      C303          C  0.4889203  0.4858033  0.0227924    0.00000       Uiso       1.00
      F106          F  0.4785613  0.4990301  0.0314204    0.00000       Uiso       1.00
      F107          F  0.4758994  0.4682695  0.0273651    0.00000       Uiso       1.00
      F108          F  0.5045007  0.4946195  0.0302978    0.00000       Uiso       1.00
      C304          C  0.5970929  0.8147089  0.6743431    0.00000       Uiso       1.00
      C305          C  0.6096404  0.8381683  0.6870527    0.00000       Uiso       1.00
      C306          C  0.5988616  0.8489440  0.7125362    0.00000       Uiso       1.00
      C307          C  0.5736334  0.8021614  0.6870525    0.00000       Uiso       1.00
      C308          C  0.5627542  0.8129115  0.7124537    0.00000       Uiso       1.00
      C309          C  0.5751506  0.8365290  0.7258623    0.00000       Uiso       1.00
      H109          H  0.5368253  0.1021127  0.9562152    0.00000       Uiso       1.00
      H110          H  0.5631135  0.7830373  0.6769617    0.00000       Uiso       1.00
      H111          H  0.6287646  0.8486883  0.6769620    0.00000       Uiso       1.00
      C310          C  0.5432757  0.1492609  0.0088949    0.00000       Uiso       1.00
      C311          C  0.5414784  0.1365518  0.9854363    0.00000       Uiso       1.00
      C312          C  0.5377061  0.1111506  0.9745568    0.00000       Uiso       1.00
      C313          C  0.5414780  0.1365513  0.0214422    0.00000       Uiso       1.00
      C314          C  0.5375487  0.1110676  0.0106633    0.00000       Uiso       1.00
      C315          C  0.5355180  0.0977427  0.9869535    0.00000       Uiso       1.00
      H112          H  0.6090724  0.8673882  0.9486280    0.00000       Uiso       1.00
      H113          H  0.5429645  0.1466420  0.0405662    0.00000       Uiso       1.00
      H114          H  0.5429651  0.1466427  0.9749165    0.00000       Uiso       1.00
      C316          C  0.2625388  0.8685243  0.0088931    0.00000       Uiso       1.00
      C317          C  0.2752482  0.8703218  0.0214404    0.00000       Uiso       1.00
      C318          C  0.3006499  0.8740970  0.0106923    0.00000       Uiso       1.00
      C319          C  0.2752486  0.8703223  0.9854346    0.00000       Uiso       1.00
      C320          C  0.3007328  0.8742555  0.9746606    0.00000       Uiso       1.00
      C321          C  0.3140590  0.8762888  0.9870778    0.00000       Uiso       1.00
      H115          H  0.5444123  0.8027278  0.7214917    0.00000       Uiso       1.00
      H116          H  0.2651579  0.8688357  0.9749147    0.00000       Uiso       1.00
      H117          H  0.2651573  0.8688351  0.0405644    0.00000       Uiso       1.00
      C322          C  0.5970912  0.8147073  0.9550765    0.00000       Uiso       1.00
      C323          C  0.5736319  0.8021598  0.9532787    0.00000       Uiso       1.00
      C324          C  0.5628560  0.8129387  0.9493502    0.00000       Uiso       1.00
      C325          C  0.6096388  0.8381667  0.9532790    0.00000       Uiso       1.00
      C326          C  0.5988884  0.8490465  0.9495081    0.00000       Uiso       1.00
      C327          C  0.5752710  0.8366500  0.9473208    0.00000       Uiso       1.00
      H118          H  0.3096896  0.8749813  0.0208773    0.00000       Uiso       1.00
      C328          C  0.4999998  0.9118036  0.9118029    0.00000       Uiso       1.00
      H119          H  0.6287629  0.8486867  0.9547656    0.00000       Uiso       1.00
      H120          H  0.5631118  0.7830356  0.9547653    0.00000       Uiso       1.00
      C329          C  0.6138079  0.8744795  0.7258214    0.00000       Uiso       1.00
      F109          F  0.6025726  0.8804432  0.7460555    0.00000       Uiso       1.00
      F110          F  0.6314058  0.8737437  0.7238006    0.00000       Uiso       1.00
      F111          F  0.6185092  0.8881547  0.7174426    0.00000       Uiso       1.00
      C330          C  0.5373220  0.7979906  0.9466506    0.00000       Uiso       1.00
      F112          F  0.5313576  0.8092258  0.9436161    0.00000       Uiso       1.00
      F113          F  0.5380608  0.7803942  0.9303359    0.00000       Uiso       1.00
      F114          F  0.5236458  0.7932864  0.9640015    0.00000       Uiso       1.00
      C331          C  0.5348511  0.0977843  0.0256121    0.00000       Uiso       1.00
      F115          F  0.5318156  0.0775497  0.0143785    0.00000       Uiso       1.00
      F116          F  0.5522032  0.1061640  0.0303145    0.00000       Uiso       1.00
      F117          F  0.5185374  0.0998061  0.0432094    0.00000       Uiso       1.00
      C332          C  0.3140123  0.8769573  0.9491280    0.00000       Uiso       1.00
      F118          F  0.3342481  0.8799958  0.9431603    0.00000       Uiso       1.00
      F119          F  0.3056333  0.8596056  0.9354523    0.00000       Uiso       1.00
      F120          F  0.3119860  0.8932706  0.9498707    0.00000       Uiso       1.00
      C333          C  0.5635045  0.8479156  0.7533850    0.00000       Uiso       1.00
      C334          C  0.5684195  0.8735580  0.7647872    0.00000       Uiso       1.00
      C335          C  0.5577368  0.8841664  0.7903659    0.00000       Uiso       1.00
      C336          C  0.5473139  0.8332034  0.7685910    0.00000       Uiso       1.00
      C337          C  0.5363503  0.8435653  0.7941332    0.00000       Uiso       1.00
      C338          C  0.5415989  0.8691309  0.8050904    0.00000       Uiso       1.00
      H121          H  0.5434798  0.8136128  0.7606824    0.00000       Uiso       1.00
      H122          H  0.5803474  0.8853565  0.7537349    0.00000       Uiso       1.00
      C339          C  0.5310270  0.0702214  0.9753070    0.00000       Uiso       1.00
      C340          C  0.5172901  0.0550153  0.9591253    0.00000       Uiso       1.00
      C341          C  0.5130736  0.0294734  0.9481604    0.00000       Uiso       1.00
      C342          C  0.5403621  0.0588204  0.9802111    0.00000       Uiso       1.00
      C343          C  0.5360746  0.0332432  0.9695272    0.00000       Uiso       1.00
      C344          C  0.5224432  0.0185180  0.9533993    0.00000       Uiso       1.00
      H123          H  0.5512941  0.0698685  0.9921293    0.00000       Uiso       1.00
      H124          H  0.5094344  0.0629239  0.9552986    0.00000       Uiso       1.00
      C345          C  0.3415818  0.8807830  0.9756959    0.00000       Uiso       1.00
      C346          C  0.3567855  0.8945115  0.9904115    0.00000       Uiso       1.00
      C347          C  0.3823303  0.8987287  0.9800510    0.00000       Uiso       1.00
      C348          C  0.3529845  0.8714576  0.9500550    0.00000       Uiso       1.00
      C349          C  0.3785616  0.8757464  0.9394495    0.00000       Uiso       1.00
      C350          C  0.3932876  0.8893677  0.9544831    0.00000       Uiso       1.00
      H125          H  0.3419392  0.8605329  0.9382518    0.00000       Uiso       1.00
      H126          H  0.3488681  0.9023579  0.0100045    0.00000       Uiso       1.00
      C351          C  0.5638849  0.8482962  0.9428307    0.00000       Uiso       1.00
      C352          C  0.5382438  0.8433890  0.9521635    0.00000       Uiso       1.00
      C353          C  0.5276355  0.8540697  0.9478737    0.00000       Uiso       1.00
      C354          C  0.5785967  0.8644795  0.9290962    0.00000       Uiso       1.00
      C355          C  0.5682349  0.8754439  0.9248801    0.00000       Uiso       1.00
      C356          C  0.5426705  0.8702005  0.9342447    0.00000       Uiso       1.00
      H127          H  0.5981865  0.8683081  0.9212441    0.00000       Uiso       1.00
      H128          H  0.5264492  0.8314697  0.9630951    0.00000       Uiso       1.00
      C357          C  0.5021615  0.8488672  0.9569334    0.00000       Uiso       1.00
      C358          C  0.4917419  0.8592667  0.9523240    0.00000       Uiso       1.00
      C359          C  0.5451416  0.0220322  0.9747236    0.00000       Uiso       1.00
      C360          C  0.5405353  0.9966049  0.9643216    0.00000       Uiso       1.00
      H129          H  0.5556948  0.0329454  0.9870198    0.00000       Uiso       1.00
      H130          H  0.4902295  0.8365703  0.9674848    0.00000       Uiso       1.00
      C361          C  0.4637296  0.8527583  0.9623841    0.00000       Uiso       1.00
      F121          F  0.4585451  0.8627453  0.9569559    0.00000       Uiso       1.00
      F122          F  0.4548075  0.8321670  0.9544583    0.00000       Uiso       1.00
      F123          F  0.4570996  0.8585448  0.9831852    0.00000       Uiso       1.00
      C362          C  0.5506031  0.9851673  0.9708284    0.00000       Uiso       1.00
      F124          F  0.5451788  0.9645675  0.9608414    0.00000       Uiso       1.00
      F125          F  0.5714042  0.9935567  0.9650408    0.00000       Uiso       1.00
      F126          F  0.5426793  0.9889108  0.9914194    0.00000       Uiso       1.00
      C363          C  0.5308348  0.8796880  0.8308459    0.00000       Uiso       1.00
      C364          C  0.5364361  0.9052735  0.8419000    0.00000       Uiso       1.00
      C365          C  0.5262519  0.9157212  0.8675972    0.00000       Uiso       1.00
      C366          C  0.5147918  0.8646619  0.8455487    0.00000       Uiso       1.00
      C367          C  0.5044804  0.8752750  0.8711275    0.00000       Uiso       1.00
      C368          C  0.5097865  0.9010015  0.8828811    0.00000       Uiso       1.00
      H131          H  0.4886867  0.9413996  0.9043774    0.00000       Uiso       1.00
      H132          H  0.4636674  0.8837892  0.8881761    0.00000       Uiso       1.00
      C369          C  0.5180102  0.9927636  0.9426349    0.00000       Uiso       1.00
      C370          C  0.5043156  0.9780587  0.9265991    0.00000       Uiso       1.00
      C371          C  0.4996618  0.9524788  0.9162859    0.00000       Uiso       1.00
      C372          C  0.5269514  0.9817101  0.9482262    0.00000       Uiso       1.00
      C373          C  0.5218840  0.9560118  0.9380429    0.00000       Uiso       1.00
      C374          C  0.5083339  0.9407260  0.9215879    0.00000       Uiso       1.00
      H133          H  0.5319359  0.9354302  0.8754731    0.00000       Uiso       1.00
      H134          H  0.5483361  0.9192513  0.9005166    0.00000       Uiso       1.00
      C375          C  0.4190412  0.8937980  0.9439221    0.00000       Uiso       1.00
      C376          C  0.4337449  0.9074820  0.9589483    0.00000       Uiso       1.00
      C377          C  0.4593244  0.9121351  0.9483334    0.00000       Uiso       1.00
      C378          C  0.4300944  0.8848672  0.9183344    0.00000       Uiso       1.00
      C379          C  0.4557927  0.8899345  0.9078851    0.00000       Uiso       1.00
      C380          C  0.4710773  0.9034712  0.9226053    0.00000       Uiso       1.00
      H135          H  0.4763694  0.8798769  0.9398334    0.00000       Uiso       1.00
      H136          H  0.4925643  0.8634693  0.8822048    0.00000       Uiso       1.00
      C381          C  0.5321136  0.8809645  0.9298105    0.00000       Uiso       1.00
      C382          C  0.5065264  0.8753666  0.9387448    0.00000       Uiso       1.00
      C383          C  0.4960792  0.8855507  0.9336767    0.00000       Uiso       1.00
      C384          C  0.5471409  0.8970081  0.9161235    0.00000       Uiso       1.00
      C385          C  0.5365288  0.9073235  0.9114715    0.00000       Uiso       1.00
      C386          C  0.5108011  0.9020154  0.9201360    0.00000       Uiso       1.00
      H137          H  0.4704059  0.9230932  0.9601356    0.00000       Uiso       1.00
      H138          H  0.5280424  0.9481366  0.9437192    0.00000       Uiso       1.00
      C387          C  0.4151997  0.8712941  0.9035502    0.00000       Uiso       1.00
      C388          C  0.3897717  0.8666878  0.9139723    0.00000       Uiso       1.00
      C389          C  0.4225942  0.9166315  0.9844155    0.00000       Uiso       1.00
      C390          C  0.3972300  0.9123400  0.9948242    0.00000       Uiso       1.00
      C391          C  0.5525428  0.9200597  0.8270068    0.00000       Uiso       1.00
      C392          C  0.5629457  0.9096415  0.8015782    0.00000       Uiso       1.00
      C393          C  0.5096232  0.8391936  0.8343968    0.00000       Uiso       1.00
      C394          C  0.5202870  0.8287874  0.8090296    0.00000       Uiso       1.00
      C395          C  0.5726085  0.9021728  0.9069729    0.00000       Uiso       1.00
      C396          C  0.5830123  0.8915048  0.9112664    0.00000       Uiso       1.00
      C397          C  0.4951575  0.9892096  0.9214408    0.00000       Uiso       1.00
      C398          C  0.4994534  0.0145754  0.9321057    0.00000       Uiso       1.00
      H139          H  0.4844915  0.9782698  0.9092363    0.00000       Uiso       1.00
      H140          H  0.4335324  0.9272891  0.9963467    0.00000       Uiso       1.00
      H141          H  0.3788578  0.8561434  0.9020371    0.00000       Uiso       1.00
      H142          H  0.4974110  0.8272593  0.8453323    0.00000       Uiso       1.00
      H143          H  0.5752512  0.9215730  0.7906598    0.00000       Uiso       1.00
      H144          H  0.5845399  0.9143869  0.8963173    0.00000       Uiso       1.00
      C399          C  0.5590624  0.9480733  0.8384463    0.00000       Uiso       1.00
      F127          F  0.5722557  0.9567084  0.8234901    0.00000       Uiso       1.00
      F128          F  0.5416865  0.9529834  0.8478476    0.00000       Uiso       1.00
      F129          F  0.5680712  0.9552654  0.8524693    0.00000       Uiso       1.00
      C400          C  0.5141975  0.8008161  0.7976766    0.00000       Uiso       1.00
      F130          F  0.5009700  0.7921820  0.8126298    0.00000       Uiso       1.00
      F131          F  0.5053828  0.7933164  0.7834073    0.00000       Uiso       1.00
      F132          F  0.5317318  0.7962438  0.7885887    0.00000       Uiso       1.00
      C401          C  0.6109835  0.8975930  0.9007313    0.00000       Uiso       1.00
      F133          F  0.6196144  0.9108189  0.8903707    0.00000       Uiso       1.00
      F134          F  0.6184880  0.9064089  0.9163123    0.00000       Uiso       1.00
      F135          F  0.6155542  0.8800579  0.8877122    0.00000       Uiso       1.00
      C402          C  0.4889098  0.0259211  0.9260248    0.00000       Uiso       1.00
      F136          F  0.4785449  0.0109640  0.9128029    0.00000       Uiso       1.00
      F137          F  0.4758927  0.0350072  0.9435631    0.00000       Uiso       1.00
      F138          F  0.5044868  0.0401909  0.9172068    0.00000       Uiso       1.00
      C403          C  0.4266393  0.8612399  0.8755369    0.00000       Uiso       1.00
      F139          F  0.4116830  0.8508412  0.8669018    0.00000       Uiso       1.00
      F140          F  0.4406620  0.8770799  0.8683449    0.00000       Uiso       1.00
      F141          F  0.4360413  0.8483557  0.8706266    0.00000       Uiso       1.00
      C404          C  0.3858854  0.9228756  0.0227950    0.00000       Uiso       1.00
      F142          F  0.4008431  0.9332346  0.0314230    0.00000       Uiso       1.00
      F143          F  0.3767997  0.9358965  0.0273679    0.00000       Uiso       1.00
      F144          F  0.3716155  0.9072950  0.0303003    0.00000       Uiso       1.00
      C405          C  0.6743394  0.8147094  0.5970976    0.00000       Uiso       1.00
      C406          C  0.6870489  0.8021621  0.5736384    0.00000       Uiso       1.00
      C407          C  0.7125326  0.8129410  0.5628627    0.00000       Uiso       1.00
      C408          C  0.6870489  0.8381687  0.6096451    0.00000       Uiso       1.00
      C409          C  0.7124503  0.8490481  0.5988951    0.00000       Uiso       1.00
      C410          C  0.7258590  0.8366519  0.5752777    0.00000       Uiso       1.00
      H145          H  0.9562135  0.8749796  0.3096958    0.00000       Uiso       1.00
      H146          H  0.6769581  0.8486886  0.6287691    0.00000       Uiso       1.00
      H147          H  0.6769581  0.7830380  0.5631184    0.00000       Uiso       1.00
      C411          C  0.0088937  0.8685291  0.2625474    0.00000       Uiso       1.00
      C412          C  0.9854348  0.8703266  0.2752568    0.00000       Uiso       1.00
      C413          C  0.9745552  0.8740987  0.3006579    0.00000       Uiso       1.00
      C414          C  0.0214410  0.8703266  0.2752568    0.00000       Uiso       1.00
      C415          C  0.0106621  0.8742557  0.3007403    0.00000       Uiso       1.00
      C416          C  0.9869519  0.8762866  0.3140655    0.00000       Uiso       1.00
      H148          H  0.9486259  0.8027289  0.5444173    0.00000       Uiso       1.00
      H149          H  0.0405651  0.8688401  0.2651661    0.00000       Uiso       1.00
      H150          H  0.9749149  0.8688401  0.2651661    0.00000       Uiso       1.00
      C417          C  0.0088939  0.1492638  0.5432826    0.00000       Uiso       1.00
      C418          C  0.0214412  0.1365542  0.5414849    0.00000       Uiso       1.00
      C419          C  0.0106929  0.1111525  0.5377096    0.00000       Uiso       1.00
      C420          C  0.9854349  0.1365543  0.5414850    0.00000       Uiso       1.00
      C421          C  0.9746608  0.1110701  0.5375516    0.00000       Uiso       1.00
      C422          C  0.9870780  0.0977437  0.5355183    0.00000       Uiso       1.00
      H151          H  0.7214885  0.8673900  0.6090786    0.00000       Uiso       1.00
      H152          H  0.9749151  0.1466451  0.5429716    0.00000       Uiso       1.00
      H153          H  0.0405653  0.1466451  0.5429716    0.00000       Uiso       1.00
      C423          C  0.9550744  0.8147095  0.5970975    0.00000       Uiso       1.00
      C424          C  0.9532769  0.8381689  0.6096450    0.00000       Uiso       1.00
      C425          C  0.9493483  0.8489449  0.5988663    0.00000       Uiso       1.00
      C426          C  0.9532769  0.8021622  0.5736383    0.00000       Uiso       1.00
      C427          C  0.9495059  0.8129127  0.5627587    0.00000       Uiso       1.00
      C428          C  0.9473188  0.8365301  0.5751553    0.00000       Uiso       1.00
      H154          H  0.0208778  0.1021126  0.5368252    0.00000       Uiso       1.00
      C429          C  0.9118011  0.9118029  0.5000032    0.00000       Uiso       1.00
      H155          H  0.9547634  0.7830380  0.5631184    0.00000       Uiso       1.00
      H156          H  0.9547634  0.8486887  0.6287690    0.00000       Uiso       1.00
      C430          C  0.7258179  0.7979949  0.5373273    0.00000       Uiso       1.00
      F145          F  0.7460522  0.8092300  0.5313636    0.00000       Uiso       1.00
      F146          F  0.7237969  0.7803968  0.5380631    0.00000       Uiso       1.00
      F147          F  0.7174390  0.7932937  0.5236524    0.00000       Uiso       1.00
      C431          C  0.9466489  0.8744789  0.6138144    0.00000       Uiso       1.00
      F148          F  0.9436144  0.8804435  0.6025795    0.00000       Uiso       1.00
      F149          F  0.9303341  0.8737400  0.6314107    0.00000       Uiso       1.00
      F150          F  0.9640000  0.8881550  0.6185186    0.00000       Uiso       1.00
      C432          C  0.0256110  0.8769531  0.3140233    0.00000       Uiso       1.00
      F151          F  0.0143774  0.8799884  0.3342578    0.00000       Uiso       1.00
      F152          F  0.0303134  0.8596008  0.3056436    0.00000       Uiso       1.00
      F153          F  0.0432085  0.8932668  0.3120016    0.00000       Uiso       1.00
      C433          C  0.9491280  0.0977906  0.5348501    0.00000       Uiso       1.00
      F154          F  0.9431601  0.0775548  0.5318115    0.00000       Uiso       1.00
      F155          F  0.9354522  0.1061696  0.5522017    0.00000       Uiso       1.00
      F156          F  0.9498705  0.0998171  0.5185370    0.00000       Uiso       1.00
      C434          C  0.7533820  0.8482981  0.5638911    0.00000       Uiso       1.00
      C435          C  0.7647842  0.8433831  0.5382489    0.00000       Uiso       1.00
      C436          C  0.7903631  0.8540659  0.5276405    0.00000       Uiso       1.00
      C437          C  0.7685881  0.8644884  0.5786031    0.00000       Uiso       1.00
      C438          C  0.7941305  0.8754520  0.5682412    0.00000       Uiso       1.00
      C439          C  0.8050877  0.8702036  0.5426759    0.00000       Uiso       1.00
      H157          H  0.7606795  0.8683223  0.5981935    0.00000       Uiso       1.00
      H158          H  0.7537318  0.8314555  0.5264505    0.00000       Uiso       1.00
      C440          C  0.9753055  0.8807774  0.3415866    0.00000       Uiso       1.00
      C441          C  0.9591237  0.8945143  0.3567926    0.00000       Uiso       1.00
      C442          C  0.9481587  0.8987306  0.3823344    0.00000       Uiso       1.00
      C443          C  0.9802095  0.8714421  0.3529873    0.00000       Uiso       1.00
      C444          C  0.9695256  0.8757293  0.3785643    0.00000       Uiso       1.00
      C445          C  0.9533977  0.8893607  0.3932896    0.00000       Uiso       1.00
      H159          H  0.9921277  0.8605100  0.3419393    0.00000       Uiso       1.00
      H160          H  0.9552971  0.9023702  0.3488842    0.00000       Uiso       1.00
      C446          C  0.9756959  0.0702209  0.5310240    0.00000       Uiso       1.00
      C447          C  0.9904115  0.0550172  0.5172956    0.00000       Uiso       1.00
      C448          C  0.9800507  0.0294723  0.5130783    0.00000       Uiso       1.00
      C449          C  0.9500547  0.0588182  0.5403495    0.00000       Uiso       1.00
      C450          C  0.9394490  0.0332410  0.5360606    0.00000       Uiso       1.00
      C451          C  0.9544826  0.0185150  0.5224392    0.00000       Uiso       1.00
      H161          H  0.9382515  0.0698634  0.5512741    0.00000       Uiso       1.00
      H162          H  0.0100048  0.0629343  0.5094488    0.00000       Uiso       1.00
      C452          C  0.9428288  0.8479165  0.5635094    0.00000       Uiso       1.00
      C453          C  0.9521618  0.8735576  0.5684165    0.00000       Uiso       1.00
      C454          C  0.9478720  0.8841661  0.5577362    0.00000       Uiso       1.00
      C455          C  0.9290940  0.8332049  0.5473261    0.00000       Uiso       1.00
      C456          C  0.9248781  0.8435669  0.5363621    0.00000       Uiso       1.00
      C457          C  0.9342430  0.8691313  0.5416054    0.00000       Uiso       1.00
      H163          H  0.9212419  0.8136150  0.5434976    0.00000       Uiso       1.00
      H164          H  0.9630935  0.8853520  0.5803357    0.00000       Uiso       1.00
      C458          C  0.9569319  0.9096402  0.5629386    0.00000       Uiso       1.00
      C459          C  0.9523227  0.9200600  0.5525393    0.00000       Uiso       1.00
      C460          C  0.9747220  0.8666621  0.3897752    0.00000       Uiso       1.00
      C461          C  0.9643199  0.8712679  0.4152024    0.00000       Uiso       1.00
      H165          H  0.9870181  0.8561089  0.3788619    0.00000       Uiso       1.00
      H166          H  0.9674835  0.9215720  0.5752354    0.00000       Uiso       1.00
      C462          C  0.9623829  0.9480723  0.5590477    0.00000       Uiso       1.00
      F157          F  0.9569546  0.9532570  0.5490610    0.00000       Uiso       1.00
      F158          F  0.9544570  0.9569942  0.5796389    0.00000       Uiso       1.00
      F159          F  0.9831841  0.9547023  0.5532612    0.00000       Uiso       1.00
      C463          C  0.9708267  0.8611998  0.4266398    0.00000       Uiso       1.00
      F160          F  0.9608397  0.8666239  0.4472395    0.00000       Uiso       1.00
      F161          F  0.9650390  0.8403988  0.4182504    0.00000       Uiso       1.00
      F162          F  0.9914179  0.8691236  0.4228962    0.00000       Uiso       1.00
      C464          C  0.8308434  0.8809677  0.5321189    0.00000       Uiso       1.00
      C465          C  0.8418975  0.8753666  0.5065334    0.00000       Uiso       1.00
      C466          C  0.8675950  0.8855509  0.4960858    0.00000       Uiso       1.00
      C467          C  0.8455465  0.8970106  0.5471447    0.00000       Uiso       1.00
      C468          C  0.8711255  0.9073220  0.5365317    0.00000       Uiso       1.00
      C469          C  0.8828791  0.9020161  0.5108054    0.00000       Uiso       1.00
      H167          H  0.9043756  0.9231164  0.4704077    0.00000       Uiso       1.00
      H168          H  0.8881744  0.9481353  0.5280177    0.00000       Uiso       1.00
      C470          C  0.9426333  0.8937931  0.4190440    0.00000       Uiso       1.00
      C471          C  0.9265975  0.9074878  0.4337489    0.00000       Uiso       1.00
      C472          C  0.9162842  0.9121413  0.4593286    0.00000       Uiso       1.00
      C473          C  0.9482246  0.8848517  0.4300972    0.00000       Uiso       1.00
      C474          C  0.9380412  0.8899190  0.4557953    0.00000       Uiso       1.00
      C475          C  0.9215862  0.9034690  0.4710811    0.00000       Uiso       1.00
      H169          H  0.8754709  0.8798670  0.4763769    0.00000       Uiso       1.00
      H170          H  0.9005145  0.8634664  0.4925555    0.00000       Uiso       1.00
      C476          C  0.9439210  0.9927616  0.5180089    0.00000       Uiso       1.00
      C477          C  0.9589472  0.9780578  0.5043249    0.00000       Uiso       1.00
      C478          C  0.9483321  0.9524782  0.4996718    0.00000       Uiso       1.00
      C479          C  0.9183331  0.9817084  0.5269397    0.00000       Uiso       1.00
      C480          C  0.9078836  0.9560100  0.5218723    0.00000       Uiso       1.00
      C481          C  0.9226037  0.9407254  0.5083356    0.00000       Uiso       1.00
      H171          H  0.9398320  0.9354329  0.5319296    0.00000       Uiso       1.00
      H172          H  0.8822029  0.9192381  0.5483372    0.00000       Uiso       1.00
      C482          C  0.9298086  0.8796884  0.5308416    0.00000       Uiso       1.00
      C483          C  0.9387432  0.9052757  0.5364396    0.00000       Uiso       1.00
      C484          C  0.9336751  0.9157231  0.5262557    0.00000       Uiso       1.00
      C485          C  0.9161215  0.8646613  0.5147983    0.00000       Uiso       1.00
      C486          C  0.9114695  0.8752737  0.5044831    0.00000       Uiso       1.00
      C487          C  0.9201342  0.9010013  0.5097912    0.00000       Uiso       1.00
      H173          H  0.9601343  0.9413968  0.4887137    0.00000       Uiso       1.00
      H174          H  0.9437174  0.8837603  0.4636704    0.00000       Uiso       1.00
      C488          C  0.9035489  0.9966030  0.5405128    0.00000       Uiso       1.00
      C489          C  0.9139715  0.0220308  0.5451190    0.00000       Uiso       1.00
      C490          C  0.9844147  0.9892086  0.4951754    0.00000       Uiso       1.00
      C491          C  0.9948240  0.0145726  0.4994669    0.00000       Uiso       1.00
      C492          C  0.8270042  0.8592601  0.4917474    0.00000       Uiso       1.00
      C493          C  0.8015754  0.8488573  0.5021656    0.00000       Uiso       1.00
      C494          C  0.8343945  0.9021791  0.5726128    0.00000       Uiso       1.00
      C495          C  0.8090271  0.8915151  0.5830190    0.00000       Uiso       1.00
      C496          C  0.9069707  0.8391938  0.5096335    0.00000       Uiso       1.00
      C497          C  0.9112642  0.8287897  0.5203013    0.00000       Uiso       1.00
      C498          C  0.9214392  0.9166461  0.4225982    0.00000       Uiso       1.00
      C499          C  0.9321041  0.9123508  0.3972324    0.00000       Uiso       1.00
      H175          H  0.9092345  0.9273121  0.4335380    0.00000       Uiso       1.00
      H176          H  0.9963458  0.9782703  0.4845178    0.00000       Uiso       1.00
      H177          H  0.9020364  0.0329448  0.5556636    0.00000       Uiso       1.00
      H178          H  0.8453302  0.9143911  0.5845470    0.00000       Uiso       1.00
      H179          H  0.7906568  0.8365518  0.4902343    0.00000       Uiso       1.00
      H180          H  0.8963150  0.8272624  0.4974196    0.00000       Uiso       1.00
      C500          C  0.8384438  0.8527408  0.4637341    0.00000       Uiso       1.00
      F163          F  0.8234875  0.8395477  0.4550991    0.00000       Uiso       1.00
      F164          F  0.8478453  0.8701168  0.4588240    0.00000       Uiso       1.00
      F165          F  0.8524668  0.8437318  0.4565419    0.00000       Uiso       1.00
      C501          C  0.7976741  0.8976045  0.6109900    0.00000       Uiso       1.00
      F166          F  0.8126274  0.9108318  0.6196240    0.00000       Uiso       1.00
      F167          F  0.7834048  0.9064192  0.6184897    0.00000       Uiso       1.00
      F168          F  0.7885861  0.8800701  0.6155622    0.00000       Uiso       1.00
      C502          C  0.9007289  0.8008184  0.5142131    0.00000       Uiso       1.00
      F169          F  0.8903682  0.7921878  0.5009874    0.00000       Uiso       1.00
      F170          F  0.9163100  0.7933139  0.5053971    0.00000       Uiso       1.00
      F171          F  0.8877097  0.7962477  0.5317481    0.00000       Uiso       1.00
      C503          C  0.9260232  0.9228946  0.3858869    0.00000       Uiso       1.00
      F172          F  0.9128013  0.9332595  0.4008439    0.00000       Uiso       1.00
      F173          F  0.9435617  0.9359117  0.3768009    0.00000       Uiso       1.00
      F174          F  0.9172051  0.9073178  0.3716173    0.00000       Uiso       1.00
      C504          C  0.8755352  0.9851634  0.5505670    0.00000       Uiso       1.00
      F175          F  0.8669007  0.0001195  0.5609657    0.00000       Uiso       1.00
      F176          F  0.8683432  0.9711409  0.5347271    0.00000       Uiso       1.00
      F177          F  0.8706250  0.9757613  0.5634511    0.00000       Uiso       1.00
      C505          C  0.0227952  0.0259170  0.4889311    0.00000       Uiso       1.00
      F178          F  0.0314231  0.0109592  0.4785720    0.00000       Uiso       1.00
      F179          F  0.0273681  0.0350029  0.4759104    0.00000       Uiso       1.00
      F180          F  0.0303006  0.0401868  0.5045115    0.00000       Uiso       1.00
      C506          C  0.9550740  0.8147090  0.6743431    0.00000       Uiso       1.00
      C507          C  0.9532762  0.8021614  0.6870524    0.00000       Uiso       1.00
      C508          C  0.9493472  0.8129401  0.7125359    0.00000       Uiso       1.00
      C509          C  0.9532765  0.8381683  0.6870526    0.00000       Uiso       1.00
      C510          C  0.9495044  0.8490475  0.7124539    0.00000       Uiso       1.00
      C511          C  0.9473168  0.8366510  0.7258623    0.00000       Uiso       1.00
      H181          H  0.0208721  0.8749757  0.9562138    0.00000       Uiso       1.00
      H182          H  0.9547632  0.8486884  0.6769620    0.00000       Uiso       1.00
      H183          H  0.9547628  0.7830373  0.6769615    0.00000       Uiso       1.00
      C512          C  0.0088891  0.8685243  0.0088932    0.00000       Uiso       1.00
      C513          C  0.0214368  0.8703224  0.9854347    0.00000       Uiso       1.00
      C514          C  0.0106874  0.8740947  0.9745553    0.00000       Uiso       1.00
      C515          C  0.9854301  0.8703218  0.0214405    0.00000       Uiso       1.00
      C516          C  0.9746546  0.8742511  0.0106618    0.00000       Uiso       1.00
      C517          C  0.9870713  0.8762826  0.9869521    0.00000       Uiso       1.00
      H184          H  0.7214858  0.8027264  0.9486276    0.00000       Uiso       1.00
      H185          H  0.9749101  0.8688351  0.0405645    0.00000       Uiso       1.00
      H186          H  0.0405610  0.8688359  0.9749148    0.00000       Uiso       1.00
      C518          C  0.0088909  0.1492607  0.0088947    0.00000       Uiso       1.00
      C519          C  0.9854320  0.1365510  0.0214420    0.00000       Uiso       1.00
      C520          C  0.9745536  0.1111494  0.0106937    0.00000       Uiso       1.00
      C521          C  0.0214386  0.1365516  0.9854362    0.00000       Uiso       1.00
      C522          C  0.0106618  0.1110675  0.9746620    0.00000       Uiso       1.00
      C523          C  0.9869517  0.0977410  0.9870791    0.00000       Uiso       1.00
      H187          H  0.9486247  0.8673893  0.7214921    0.00000       Uiso       1.00
      H188          H  0.0405628  0.1466425  0.9749164    0.00000       Uiso       1.00
      H189          H  0.9749120  0.1466417  0.0405660    0.00000       Uiso       1.00
      C524          C  0.6743374  0.8147073  0.9550765    0.00000       Uiso       1.00
      C525          C  0.6870470  0.8381667  0.9532790    0.00000       Uiso       1.00
      C526          C  0.7125306  0.8489428  0.9493504    0.00000       Uiso       1.00
      C527          C  0.6870468  0.8021598  0.9532787    0.00000       Uiso       1.00
      C528          C  0.7124480  0.8129104  0.9495078    0.00000       Uiso       1.00
      C529          C  0.7258563  0.8365278  0.9473207    0.00000       Uiso       1.00
      H190          H  0.9562130  0.1021094  0.0208786    0.00000       Uiso       1.00
      C530          C  0.9118004  0.9118004  0.9118029    0.00000       Uiso       1.00
      H191          H  0.6769559  0.7830356  0.9547652    0.00000       Uiso       1.00
      H192          H  0.6769563  0.8486867  0.9547656    0.00000       Uiso       1.00
      C531          C  0.9466510  0.7979937  0.7258209    0.00000       Uiso       1.00
      F181          F  0.9436157  0.8092288  0.7460551    0.00000       Uiso       1.00
      F182          F  0.9303378  0.7803956  0.7238000    0.00000       Uiso       1.00
      F183          F  0.9640038  0.7932925  0.7174420    0.00000       Uiso       1.00
      C532          C  0.7258161  0.8744769  0.9466511    0.00000       Uiso       1.00
      F184          F  0.7460502  0.8804414  0.9436165    0.00000       Uiso       1.00
      F185          F  0.7237957  0.8737382  0.9303365    0.00000       Uiso       1.00
      F186          F  0.7174370  0.8881530  0.9640021    0.00000       Uiso       1.00
      C533          C  0.9491198  0.8769485  0.0256107    0.00000       Uiso       1.00
      F187          F  0.9431544  0.8799840  0.0143773    0.00000       Uiso       1.00
      F188          F  0.9354448  0.8595961  0.0303130    0.00000       Uiso       1.00
      F189          F  0.9498579  0.8932620  0.0432081    0.00000       Uiso       1.00
      C534          C  0.0256167  0.0977881  0.9491293    0.00000       Uiso       1.00
      F190          F  0.0143871  0.0775523  0.9431615    0.00000       Uiso       1.00
      F191          F  0.0303198  0.1061673  0.9354538    0.00000       Uiso       1.00
      F192          F  0.0432137  0.0998145  0.9498719    0.00000       Uiso       1.00
      C535          C  0.9428267  0.8482969  0.7533850    0.00000       Uiso       1.00
      C536          C  0.9521517  0.8433818  0.7647870    0.00000       Uiso       1.00
      C537          C  0.9478640  0.8540643  0.7903657    0.00000       Uiso       1.00
      C538          C  0.9290988  0.8644872  0.7685911    0.00000       Uiso       1.00
      C539          C  0.9248821  0.8754506  0.7941333    0.00000       Uiso       1.00
      C540          C  0.9342417  0.8702021  0.8050904    0.00000       Uiso       1.00
      H193          H  0.9212509  0.8683214  0.7606828    0.00000       Uiso       1.00
      H194          H  0.9630749  0.8314542  0.7537346    0.00000       Uiso       1.00
      C541          C  0.9756874  0.8807735  0.9753059    0.00000       Uiso       1.00
      C542          C  0.9904003  0.8945107  0.9591242    0.00000       Uiso       1.00
      C543          C  0.9800396  0.8987272  0.9481596    0.00000       Uiso       1.00
      C544          C  0.9500471  0.8714383  0.9802099    0.00000       Uiso       1.00
      C545          C  0.9394411  0.8757258  0.9695263    0.00000       Uiso       1.00
      C546          C  0.9544755  0.8893573  0.9533985    0.00000       Uiso       1.00
      H195          H  0.9382448  0.8605061  0.9921280    0.00000       Uiso       1.00
      H196          H  0.0099908  0.9023665  0.9552976    0.00000       Uiso       1.00
      C547          C  0.9753051  0.0702182  0.9756970    0.00000       Uiso       1.00
      C548          C  0.9591140  0.0550144  0.9904125    0.00000       Uiso       1.00
      C549          C  0.9481470  0.0294695  0.9800518    0.00000       Uiso       1.00
      C550          C  0.9802179  0.0588157  0.9500561    0.00000       Uiso       1.00
      C551          C  0.9695353  0.0332386  0.9394504    0.00000       Uiso       1.00
      C552          C  0.9533967  0.0185124  0.9544838    0.00000       Uiso       1.00
      H197          H  0.9921419  0.0698611  0.9382530    0.00000       Uiso       1.00
      H198          H  0.9552839  0.0629310  0.0100054    0.00000       Uiso       1.00
      C553          C  0.7533787  0.8479142  0.9428307    0.00000       Uiso       1.00
      C554          C  0.7647800  0.8735553  0.9521637    0.00000       Uiso       1.00
      C555          C  0.7903589  0.8841639  0.9478740    0.00000       Uiso       1.00
      C556          C  0.7685852  0.8332027  0.9290959    0.00000       Uiso       1.00
      C557          C  0.7941275  0.8435646  0.9248799    0.00000       Uiso       1.00
      C558          C  0.8050839  0.8691289  0.9342447    0.00000       Uiso       1.00
      H199          H  0.7606758  0.8136127  0.9212438    0.00000       Uiso       1.00
      H200          H  0.7537235  0.8853497  0.9630954    0.00000       Uiso       1.00
      C559          C  0.8015708  0.9096378  0.9569337    0.00000       Uiso       1.00
      C560          C  0.8269994  0.9200576  0.9523244    0.00000       Uiso       1.00
      C561          C  0.9139665  0.8666586  0.9747227    0.00000       Uiso       1.00
      C562          C  0.9035470  0.8712646  0.9643208    0.00000       Uiso       1.00
      H201          H  0.9020303  0.8561053  0.9870186    0.00000       Uiso       1.00
      H202          H  0.7906542  0.9215696  0.9674853    0.00000       Uiso       1.00
      C563          C  0.8384433  0.9480699  0.9623846    0.00000       Uiso       1.00
      F193          F  0.8590432  0.9532545  0.9569563    0.00000       Uiso       1.00
      F194          F  0.8346999  0.9569920  0.9544591    0.00000       Uiso       1.00
      F195          F  0.8300585  0.9546996  0.9831857    0.00000       Uiso       1.00
      C564          C  0.8755346  0.8611965  0.9708276    0.00000       Uiso       1.00
      F196          F  0.8703460  0.8666208  0.9608408    0.00000       Uiso       1.00
      F197          F  0.8689105  0.8403955  0.9650399    0.00000       Uiso       1.00
      F198          F  0.8666108  0.8691202  0.9914187    0.00000       Uiso       1.00
      C565          C  0.9298072  0.8809660  0.8308459    0.00000       Uiso       1.00
      C566          C  0.9387373  0.8753646  0.8418998    0.00000       Uiso       1.00
      C567          C  0.9336719  0.8855487  0.8675970    0.00000       Uiso       1.00
      C568          C  0.9161212  0.8970088  0.8455489    0.00000       Uiso       1.00
      C569          C  0.9114667  0.9073200  0.8711277    0.00000       Uiso       1.00
      C570          C  0.9201334  0.9020139  0.8828811    0.00000       Uiso       1.00
      H203          H  0.9601352  0.9231138  0.9043772    0.00000       Uiso       1.00
      H204          H  0.9437454  0.9481332  0.8881765    0.00000       Uiso       1.00
      C571          C  0.9439178  0.8937899  0.9426343    0.00000       Uiso       1.00
      C572          C  0.9589436  0.9074849  0.9265987    0.00000       Uiso       1.00
      C573          C  0.9483306  0.9121386  0.9162857    0.00000       Uiso       1.00
      C574          C  0.9183317  0.8848486  0.9482257    0.00000       Uiso       1.00
      C575          C  0.9078841  0.8899161  0.9380425    0.00000       Uiso       1.00
      C576          C  0.9226036  0.9034663  0.9215876    0.00000       Uiso       1.00
      H205          H  0.9398210  0.8798646  0.8754727    0.00000       Uiso       1.00
      H206          H  0.8821979  0.8634639  0.9005163    0.00000       Uiso       1.00
      C577          C  0.9426341  0.9927590  0.9439227    0.00000       Uiso       1.00
      C578          C  0.9265879  0.9780551  0.9589487    0.00000       Uiso       1.00
      C579          C  0.9162764  0.9524755  0.9483336    0.00000       Uiso       1.00
      C580          C  0.9482379  0.9817060  0.9183350    0.00000       Uiso       1.00
      C581          C  0.9380563  0.9560077  0.9078855    0.00000       Uiso       1.00
      C582          C  0.9215881  0.9407229  0.9226055    0.00000       Uiso       1.00
      H207          H  0.8754731  0.9354305  0.9398337    0.00000       Uiso       1.00
      H208          H  0.9004998  0.9192361  0.8822051    0.00000       Uiso       1.00
      C583          C  0.8308393  0.8796860  0.9298104    0.00000       Uiso       1.00
      C584          C  0.8418942  0.9052733  0.9387450    0.00000       Uiso       1.00
      C585          C  0.8675938  0.9157206  0.9336768    0.00000       Uiso       1.00
      C586          C  0.8455427  0.8646589  0.9161233    0.00000       Uiso       1.00
      C587          C  0.8711224  0.8752713  0.9114712    0.00000       Uiso       1.00
      C588          C  0.8828774  0.9009988  0.9201359    0.00000       Uiso       1.00
      H209          H  0.9043508  0.9413940  0.9601357    0.00000       Uiso       1.00
      H210          H  0.8881740  0.8837575  0.9437188    0.00000       Uiso       1.00
      C589          C  0.9643440  0.9966008  0.9035509    0.00000       Uiso       1.00
      C590          C  0.9747441  0.0220286  0.9139732    0.00000       Uiso       1.00
      C591          C  0.9214208  0.9892057  0.9844159    0.00000       Uiso       1.00
      C592          C  0.9320852  0.0145696  0.9948248    0.00000       Uiso       1.00
      C593          C  0.9523103  0.8592582  0.8270064    0.00000       Uiso       1.00
      C594          C  0.9569181  0.8488556  0.8015778    0.00000       Uiso       1.00
      C595          C  0.9069735  0.9021775  0.8343971    0.00000       Uiso       1.00
      C596          C  0.9112708  0.8915138  0.8090299    0.00000       Uiso       1.00
      C597          C  0.8343905  0.8391914  0.9069725    0.00000       Uiso       1.00
      C598          C  0.8090249  0.8287873  0.9112660    0.00000       Uiso       1.00
      C599          C  0.9844111  0.9166431  0.9214403    0.00000       Uiso       1.00
      C600          C  0.9948167  0.9123476  0.9321051    0.00000       Uiso       1.00
      H211          H  0.9963420  0.9273093  0.9092360    0.00000       Uiso       1.00
      H212          H  0.9092088  0.9782673  0.9963470    0.00000       Uiso       1.00
      H213          H  0.9870487  0.0329427  0.9020382    0.00000       Uiso       1.00
      H214          H  0.8963156  0.9143895  0.8453329    0.00000       Uiso       1.00
      H215          H  0.9674625  0.8365502  0.7906593    0.00000       Uiso       1.00
      H216          H  0.8453287  0.8272600  0.8963168    0.00000       Uiso       1.00
      C601          C  0.9623648  0.8527386  0.8384457    0.00000       Uiso       1.00
      F199          F  0.9727628  0.8395454  0.8234894    0.00000       Uiso       1.00
      F200          F  0.9752495  0.8701145  0.8478472    0.00000       Uiso       1.00
      F201          F  0.9465249  0.8437295  0.8524686    0.00000       Uiso       1.00
      C602          C  0.9007419  0.8976033  0.7976773    0.00000       Uiso       1.00
      F202          F  0.8903821  0.9108307  0.8126305    0.00000       Uiso       1.00
      F203          F  0.9163265  0.9064183  0.7834080    0.00000       Uiso       1.00
      F204          F  0.8877233  0.8800690  0.7885892    0.00000       Uiso       1.00
      C603          C  0.7976769  0.8008161  0.9007307    0.00000       Uiso       1.00
      F205          F  0.8126327  0.7921854  0.8903700    0.00000       Uiso       1.00
      F206          F  0.7834072  0.7933114  0.9163117    0.00000       Uiso       1.00
      F207          F  0.7885904  0.7962455  0.8877117    0.00000       Uiso       1.00
      C604          C  0.0227866  0.9228914  0.9260241    0.00000       Uiso       1.00
      F208          F  0.0314165  0.9332564  0.9128025    0.00000       Uiso       1.00
      F209          F  0.0273514  0.9359084  0.9435624    0.00000       Uiso       1.00
      F210          F  0.0302975  0.9073145  0.9172060    0.00000       Uiso       1.00
      C605          C  0.9708637  0.9851615  0.8755376    0.00000       Uiso       1.00
      F211          F  0.9840568  0.0001177  0.8669028    0.00000       Uiso       1.00
      F212          F  0.9798731  0.9711388  0.8683454    0.00000       Uiso       1.00
      F213          F  0.9534876  0.9757594  0.8706273    0.00000       Uiso       1.00
      C606          C  0.9259936  0.0259135  0.0227956    0.00000       Uiso       1.00
      F214          F  0.9127668  0.0109556  0.0314235    0.00000       Uiso       1.00
      F215          F  0.9435273  0.0349992  0.0273685    0.00000       Uiso       1.00
      F216          F  0.9171775  0.0401833  0.0303011    0.00000       Uiso       1.00
        N1          N  0.5993640  0.4564424  0.6344399    0.00000       Uiso       1.00
      C607          C  0.6107364  0.4564512  0.6467752    0.00000       Uiso       1.00
      C608          C  0.6467710  0.4564515  0.6107413    0.00000       Uiso       1.00
        N2          N  0.6344354  0.4564424  0.6344399    0.00000       Uiso       1.00
        N3          N  0.6344357  0.4564426  0.5993689    0.00000       Uiso       1.00
      C609          C  0.6107367  0.4564514  0.6107412    0.00000       Uiso       1.00
        N4          N  0.6344379  0.7773646  0.5993702    0.00000       Uiso       1.00
      C610          C  0.6467732  0.8010635  0.6107428    0.00000       Uiso       1.00
      C611          C  0.6107389  0.8010635  0.6467770    0.00000       Uiso       1.00
        N5          N  0.6344378  0.8124360  0.6344417    0.00000       Uiso       1.00
        N6          N  0.5993664  0.7773646  0.6344415    0.00000       Uiso       1.00
      C612          C  0.6107389  0.7650291  0.6107426    0.00000       Uiso       1.00
      C613          C  0.1983052  0.3629358  0.5477551    0.00000       Uiso       1.00
      C614          C  0.1773193  0.3421030  0.5490104    0.00000       Uiso       1.00
      C615          C  0.1766521  0.3221080  0.5514503    0.00000       Uiso       1.00
      C616          C  0.1559110  0.3009205  0.5514392    0.00000       Uiso       1.00
      C617          C  0.1358496  0.2986981  0.5475973    0.00000       Uiso       1.00
      C618          C  0.1370702  0.3189418  0.5448048    0.00000       Uiso       1.00
      C619          C  0.1566790  0.3412862  0.5472067    0.00000       Uiso       1.00
        O1          O  0.2203106  0.3662787  0.5482814    0.00000       Uiso       1.00
      H217          H  0.1923162  0.3229988  0.5533896    0.00000       Uiso       1.00
      H218          H  0.1560005  0.2863384  0.5541983    0.00000       Uiso       1.00
      H219          H  0.1234357  0.3168410  0.5391777    0.00000       Uiso       1.00
      C620          C  0.0488341  0.3831291  0.5478197    0.00000       Uiso       1.00
      C621          C  0.0696613  0.3842342  0.5490898    0.00000       Uiso       1.00
      C622          C  0.0896641  0.4059972  0.5515177    0.00000       Uiso       1.00
      C623          C  0.1108522  0.4064262  0.5514996    0.00000       Uiso       1.00
      C624          C  0.1130711  0.3847432  0.5476562    0.00000       Uiso       1.00
      C625          C  0.0928130  0.3629352  0.5448876    0.00000       Uiso       1.00
      C626          C  0.0704682  0.3626094  0.5472995    0.00000       Uiso       1.00
        O2          O  0.0455088  0.4023117  0.5483130    0.00000       Uiso       1.00
      H220          H  0.0887865  0.4227087  0.5534411    0.00000       Uiso       1.00
      H221          H  0.1254396  0.4238542  0.5542467    0.00000       Uiso       1.00
      H222          H  0.0948995  0.3457697  0.5392622    0.00000       Uiso       1.00
      C627          C  0.0286791  0.2135116  0.5477965    0.00000       Uiso       1.00
      C628          C  0.0275689  0.2345074  0.5490856    0.00000       Uiso       1.00
      C629          C  0.0057946  0.2351787  0.5515475    0.00000       Uiso       1.00
      C630          C  0.0053499  0.2559278  0.5515600    0.00000       Uiso       1.00
      C631          C  0.0270291  0.2759925  0.5477203    0.00000       Uiso       1.00
      C632          C  0.0488506  0.2747716  0.5449189    0.00000       Uiso       1.00
      C633          C  0.0491938  0.2551492  0.5472892    0.00000       Uiso       1.00
        O3          O  0.0094889  0.1915075  0.5483183    0.00000       Uiso       1.00
      H223          H  0.9890892  0.2195037  0.5534734    0.00000       Uiso       1.00
      H224          H  0.9879166  0.2558377  0.5543249    0.00000       Uiso       1.00
      H225          H  0.0660102  0.2884117  0.5393006    0.00000       Uiso       1.00
      C634          C  0.0501151  0.2125143  0.5446219    0.00000       Uiso       1.00
      C635          C  0.0715661  0.2329233  0.5440405    0.00000       Uiso       1.00
      C636          C  0.0932968  0.2319964  0.5413826    0.00000       Uiso       1.00
      C637          C  0.1143244  0.2528950  0.5417749    0.00000       Uiso       1.00
      C638          C  0.1137097  0.2756122  0.5462501    0.00000       Uiso       1.00
      C639          C  0.0914465  0.2762469  0.5494351    0.00000       Uiso       1.00
      C640          C  0.0708836  0.2549348  0.5465860    0.00000       Uiso       1.00
        O4          O  0.0475465  0.1897816  0.5428122    0.00000       Uiso       1.00
      H226          H  0.0939300  0.2149377  0.5389037    0.00000       Uiso       1.00
      H227          H  0.1308617  0.2509827  0.5387405    0.00000       Uiso       1.00
      H228          H  0.0895784  0.2936484  0.5555838    0.00000       Uiso       1.00
      C641          C  0.0295560  0.3617010  0.5446870    0.00000       Uiso       1.00
      C642          C  0.0290887  0.3402574  0.5441280    0.00000       Uiso       1.00
      C643          C  0.0090679  0.3185376  0.5415227    0.00000       Uiso       1.00
      C644          C  0.0085459  0.2975187  0.5419310    0.00000       Uiso       1.00
      C645          C  0.0274271  0.2981275  0.5463651    0.00000       Uiso       1.00
      C646          C  0.0471589  0.3203817  0.5495011    0.00000       Uiso       1.00
      C647          C  0.0492530  0.3409342  0.5466400    0.00000       Uiso       1.00
        O5          O  0.0111982  0.3642701  0.5428847    0.00000       Uiso       1.00
      H229          H  0.9938427  0.3179025  0.5390613    0.00000       Uiso       1.00
      H230          H  0.9931118  0.2809906  0.5389331    0.00000       Uiso       1.00
      H231          H  0.0602996  0.3222618  0.5556318    0.00000       Uiso       1.00
      C648          C  0.1992849  0.3822119  0.5446203    0.00000       Uiso       1.00
      C649          C  0.1788719  0.3826686  0.5440452    0.00000       Uiso       1.00
      C650          C  0.1797791  0.4026926  0.5414472    0.00000       Uiso       1.00
      C651          C  0.1588750  0.4032196  0.5418591    0.00000       Uiso       1.00
      C652          C  0.1361677  0.3843315  0.5462804    0.00000       Uiso       1.00
      C653          C  0.1355558  0.3645881  0.5493986    0.00000       Uiso       1.00
      C654          C  0.1568761  0.3624978  0.5465432    0.00000       Uiso       1.00
        O6          O  0.2220041  0.4005848  0.5428448    0.00000       Uiso       1.00
      H232          H  0.1968327  0.4179200  0.5389956    0.00000       Uiso       1.00
      H233          H  0.1607811  0.4186645  0.5388772    0.00000       Uiso       1.00
      H234          H  0.1181632  0.3514381  0.5555170    0.00000       Uiso       1.00
        B1          B  0.2352180  0.3902546  0.5451573    0.00000       Uiso       1.00
        B2          B  0.0215395  0.3901215  0.5451758    0.00000       Uiso       1.00
        B3          B  0.0216835  0.1765804  0.5451515    0.00000       Uiso       1.00
      C655          C  0.5477532  0.3831275  0.1983112    0.00000       Uiso       1.00
      C656          C  0.5490088  0.3842300  0.1773257    0.00000       Uiso       1.00
      C657          C  0.5514489  0.4059979  0.1766587    0.00000       Uiso       1.00
      C658          C  0.5514380  0.4064335  0.1559179    0.00000       Uiso       1.00
      C659          C  0.5475962  0.3847526  0.1358565    0.00000       Uiso       1.00
      C660          C  0.5448034  0.3629367  0.1370767    0.00000       Uiso       1.00
      C661          C  0.5472050  0.3626027  0.1566853    0.00000       Uiso       1.00
        O7          O  0.5482794  0.4023162  0.2203166    0.00000       Uiso       1.00
      H235          H  0.5533882  0.4227105  0.1923228    0.00000       Uiso       1.00
      H236          H  0.5541973  0.4238643  0.1560075    0.00000       Uiso       1.00
      H237          H  0.5391762  0.3457758  0.1234422    0.00000       Uiso       1.00
      C662          C  0.5478176  0.2135275  0.0488399    0.00000       Uiso       1.00
      C663          C  0.5490876  0.2345196  0.0696671    0.00000       Uiso       1.00
      C664          C  0.5515153  0.2351872  0.0896697    0.00000       Uiso       1.00
      C665          C  0.5514972  0.2559281  0.1108578    0.00000       Uiso       1.00
      C666          C  0.5476540  0.2759869  0.1130769    0.00000       Uiso       1.00
      C667          C  0.5448856  0.2747683  0.0928190    0.00000       Uiso       1.00
      C668          C  0.5472976  0.2551612  0.0704743    0.00000       Uiso       1.00
        O8          O  0.5483106  0.1915126  0.0455144    0.00000       Uiso       1.00
      H238          H  0.5534385  0.2195213  0.0887919    0.00000       Uiso       1.00
      H239          H  0.5542442  0.2558344  0.1254450    0.00000       Uiso       1.00
      H240          H  0.5392604  0.2883951  0.0949057    0.00000       Uiso       1.00
      C669          C  0.5477964  0.3629688  0.0286869    0.00000       Uiso       1.00
      C670          C  0.5490852  0.3421516  0.0275766    0.00000       Uiso       1.00
      C671          C  0.5515471  0.3221680  0.0058023    0.00000       Uiso       1.00
      C672          C  0.5515594  0.3009864  0.0053573    0.00000       Uiso       1.00
      C673          C  0.5477194  0.2987610  0.0270363    0.00000       Uiso       1.00
      C674          C  0.5449179  0.3190019  0.0488577    0.00000       Uiso       1.00
      C675          C  0.5472885  0.3413381  0.0492011    0.00000       Uiso       1.00
        O9          O  0.5483184  0.3663047  0.0094970    0.00000       Uiso       1.00
      H241          H  0.5534735  0.3230636  0.9890973    0.00000       Uiso       1.00
      H242          H  0.5543246  0.2864081  0.9879242    0.00000       Uiso       1.00
      H243          H  0.5392994  0.3169029  0.0660171    0.00000       Uiso       1.00
      C676          C  0.5446218  0.3822276  0.0501230    0.00000       Uiso       1.00
      C677          C  0.5440401  0.3826878  0.0715737    0.00000       Uiso       1.00
      C678          C  0.5413822  0.4026874  0.0933043    0.00000       Uiso       1.00
      C679          C  0.5417742  0.4032084  0.1143317    0.00000       Uiso       1.00
      C680          C  0.5462493  0.3843516  0.1137168    0.00000       Uiso       1.00
      C681          C  0.5494342  0.3646388  0.0914537    0.00000       Uiso       1.00
      C682          C  0.5465854  0.3625392  0.0708910    0.00000       Uiso       1.00
       O10          O  0.5428122  0.4005820  0.0475546    0.00000       Uiso       1.00
      H244          H  0.5389034  0.4179006  0.0939377    0.00000       Uiso       1.00
      H245          H  0.5387397  0.4186236  0.1308690    0.00000       Uiso       1.00
      H246          H  0.5555828  0.3515178  0.0895854    0.00000       Uiso       1.00
      C683          C  0.5446851  0.2125450  0.0295620    0.00000       Uiso       1.00
      C684          C  0.5441263  0.2329626  0.0290950    0.00000       Uiso       1.00
      C685          C  0.5415213  0.2320564  0.0090744    0.00000       Uiso       1.00
      C686          C  0.5419298  0.2529619  0.0085527    0.00000       Uiso       1.00
      C687          C  0.5463639  0.2756685  0.0274340    0.00000       Uiso       1.00
      C688          C  0.5494996  0.2762818  0.0471656    0.00000       Uiso       1.00
      C689          C  0.5466383  0.2549620  0.0492594    0.00000       Uiso       1.00
       O11          O  0.5428827  0.1898158  0.0112043    0.00000       Uiso       1.00
      H247          H  0.5390601  0.2150047  0.9938494    0.00000       Uiso       1.00
      H248          H  0.5389323  0.2510582  0.9931191    0.00000       Uiso       1.00
      H249          H  0.5556304  0.2936732  0.0603063    0.00000       Uiso       1.00
      C690          C  0.5446181  0.3616961  0.1992907    0.00000       Uiso       1.00
      C691          C  0.5440430  0.3402513  0.1788778    0.00000       Uiso       1.00
      C692          C  0.5414447  0.3185362  0.1797846    0.00000       Uiso       1.00
      C693          C  0.5418566  0.2975169  0.1588805    0.00000       Uiso       1.00
      C694          C  0.5462782  0.2981193  0.1361735    0.00000       Uiso       1.00
      C695          C  0.5493967  0.3203694  0.1355619    0.00000       Uiso       1.00
      C696          C  0.5465413  0.3409244  0.1568821    0.00000       Uiso       1.00
       O12          O  0.5428424  0.3642667  0.2220097    0.00000       Uiso       1.00
      H250          H  0.5389929  0.3179105  0.1968380    0.00000       Uiso       1.00
      H251          H  0.5388746  0.2809961  0.1607864    0.00000       Uiso       1.00
      H252          H  0.5555153  0.3222453  0.1181695    0.00000       Uiso       1.00
        B4          B  0.5451550  0.3901233  0.2352237    0.00000       Uiso       1.00
        B5          B  0.5451735  0.1765964  0.0215452    0.00000       Uiso       1.00
        B6          B  0.5451518  0.3902598  0.0216918    0.00000       Uiso       1.00
        N7          N  0.9553578  0.7773644  0.6344419    0.00000       Uiso       1.00
      C697          C  0.9553489  0.8010633  0.6467772    0.00000       Uiso       1.00
      C698          C  0.9553491  0.8010638  0.6107433    0.00000       Uiso       1.00
        N8          N  0.9553580  0.8124360  0.6344420    0.00000       Uiso       1.00
        N9          N  0.9553580  0.7773647  0.5993708    0.00000       Uiso       1.00
      C699          C  0.9553489  0.7650292  0.6107431    0.00000       Uiso       1.00
      C700          C  0.0286744  0.3629380  0.1983114    0.00000       Uiso       1.00
      C701          C  0.0275720  0.3421054  0.1773258    0.00000       Uiso       1.00
      C702          C  0.0058042  0.3221103  0.1766585    0.00000       Uiso       1.00
      C703          C  0.0053687  0.3009230  0.1559176    0.00000       Uiso       1.00
      C704          C  0.0270497  0.2987007  0.1358563    0.00000       Uiso       1.00
      C705          C  0.0488656  0.3189444  0.1370768    0.00000       Uiso       1.00
      C706          C  0.0491995  0.3412887  0.1566855    0.00000       Uiso       1.00
       O13          O  0.0094856  0.3662808  0.2203167    0.00000       Uiso       1.00
      H253          H  0.9890919  0.3230011  0.1923225    0.00000       Uiso       1.00
      H254          H  0.9879383  0.2863409  0.1560070    0.00000       Uiso       1.00
      H255          H  0.0660266  0.3168436  0.1234423    0.00000       Uiso       1.00
      C707          C  0.1982753  0.3831322  0.0488412    0.00000       Uiso       1.00
      C708          C  0.1772831  0.3842372  0.0696683    0.00000       Uiso       1.00
      C709          C  0.1766154  0.4060001  0.0896711    0.00000       Uiso       1.00
      C710          C  0.1558744  0.4064290  0.1108590    0.00000       Uiso       1.00
      C711          C  0.1358156  0.3847459  0.1130779    0.00000       Uiso       1.00
      C712          C  0.1370342  0.3629380  0.0928198    0.00000       Uiso       1.00
      C713          C  0.1566415  0.3626125  0.0704752    0.00000       Uiso       1.00
       O14          O  0.2202903  0.4023149  0.0455160    0.00000       Uiso       1.00
      H256          H  0.1922814  0.4227116  0.0887935    0.00000       Uiso       1.00
      H257          H  0.1559680  0.4238569  0.1254463    0.00000       Uiso       1.00
      H258          H  0.1234074  0.3457725  0.0949064    0.00000       Uiso       1.00
      C714          C  0.0488342  0.2135148  0.0286863    0.00000       Uiso       1.00
      C715          C  0.0696513  0.2345107  0.0275762    0.00000       Uiso       1.00
      C716          C  0.0896351  0.2351821  0.0058021    0.00000       Uiso       1.00
      C717          C  0.1108167  0.2559313  0.0053574    0.00000       Uiso       1.00
      C718          C  0.1130419  0.2759957  0.0270364    0.00000       Uiso       1.00
      C719          C  0.0928009  0.2747747  0.0488578    0.00000       Uiso       1.00
      C720          C  0.0704647  0.2551523  0.0492009    0.00000       Uiso       1.00
       O15          O  0.0454984  0.1915109  0.0094962    0.00000       Uiso       1.00
      H259          H  0.0887402  0.2195075  0.9890969    0.00000       Uiso       1.00
      H260          H  0.1253957  0.2558416  0.9879244    0.00000       Uiso       1.00
      H261          H  0.0948998  0.2884147  0.0660172    0.00000       Uiso       1.00
      C721          C  0.0295752  0.2125174  0.0501223    0.00000       Uiso       1.00
      C722          C  0.0291148  0.2329263  0.0715731    0.00000       Uiso       1.00
      C723          C  0.0091151  0.2319992  0.0933036    0.00000       Uiso       1.00
      C724          C  0.0085940  0.2528977  0.1143311    0.00000       Uiso       1.00
      C725          C  0.0274508  0.2756149  0.1137164    0.00000       Uiso       1.00
      C726          C  0.0471638  0.2762498  0.0914535    0.00000       Uiso       1.00
      C727          C  0.0492635  0.2549378  0.0708907    0.00000       Uiso       1.00
       O16          O  0.0112207  0.1897847  0.0475536    0.00000       Uiso       1.00
      H262          H  0.9939023  0.2149405  0.0939368    0.00000       Uiso       1.00
      H263          H  0.9931791  0.2509853  0.1308683    0.00000       Uiso       1.00
      H264          H  0.0602849  0.2936513  0.0895854    0.00000       Uiso       1.00
      C728          C  0.1992579  0.3617042  0.0295632    0.00000       Uiso       1.00
      C729          C  0.1788404  0.3402607  0.0290960    0.00000       Uiso       1.00
      C730          C  0.1797466  0.3185410  0.0090752    0.00000       Uiso       1.00
      C731          C  0.1588411  0.2975220  0.0085533    0.00000       Uiso       1.00
      C732          C  0.1361344  0.2981307  0.0274344    0.00000       Uiso       1.00
      C733          C  0.1355211  0.3203849  0.0471661    0.00000       Uiso       1.00
      C734          C  0.1568408  0.3409373  0.0492602    0.00000       Uiso       1.00
       O17          O  0.2219872  0.3642735  0.0112056    0.00000       Uiso       1.00
      H265          H  0.1967990  0.3179063  0.9938503    0.00000       Uiso       1.00
      H266          H  0.1607456  0.2809944  0.9931195    0.00000       Uiso       1.00
      H267          H  0.1181296  0.3222649  0.0603068    0.00000       Uiso       1.00
      C735          C  0.0501058  0.3822141  0.1992912    0.00000       Uiso       1.00
      C736          C  0.0715507  0.3826709  0.1788783    0.00000       Uiso       1.00
      C737          C  0.0932658  0.4026949  0.1797855    0.00000       Uiso       1.00
      C738          C  0.1142852  0.4032220  0.1588815    0.00000       Uiso       1.00
      C739          C  0.1136830  0.3843341  0.1361744    0.00000       Uiso       1.00
      C740          C  0.0914330  0.3645907  0.1355625    0.00000       Uiso       1.00
      C741          C  0.0708777  0.3625003  0.1568826    0.00000       Uiso       1.00
       O18          O  0.0475351  0.4005869  0.2220102    0.00000       Uiso       1.00
      H268          H  0.0938914  0.4179221  0.1968389    0.00000       Uiso       1.00
      H269          H  0.1308061  0.4186669  0.1607875    0.00000       Uiso       1.00
      H270          H  0.0895572  0.3514408  0.1181700    0.00000       Uiso       1.00
        B7          B  0.0216783  0.3902565  0.2352240    0.00000       Uiso       1.00
        B8          B  0.2352066  0.3901248  0.0215468    0.00000       Uiso       1.00
        B9          B  0.0215431  0.1765836  0.0216908    0.00000       Uiso       1.00
       N10          N  0.5993639  0.7773624  0.9553601    0.00000       Uiso       1.00
      C742          C  0.6107365  0.8010615  0.9553512    0.00000       Uiso       1.00
      C743          C  0.6467710  0.8010616  0.9553512    0.00000       Uiso       1.00
       N11          N  0.6344355  0.8124341  0.9553602    0.00000       Uiso       1.00
       N12          N  0.6344354  0.7773626  0.9553601    0.00000       Uiso       1.00
      C744          C  0.6107364  0.7650270  0.9553509    0.00000       Uiso       1.00
      C745          C  0.1983050  0.8640469  0.0286763    0.00000       Uiso       1.00
      C746          C  0.1773193  0.8627914  0.0275740    0.00000       Uiso       1.00
      C747          C  0.1766523  0.8603516  0.0058063    0.00000       Uiso       1.00
      C748          C  0.1559113  0.8603625  0.0053709    0.00000       Uiso       1.00
      C749          C  0.1358498  0.8642042  0.0270516    0.00000       Uiso       1.00
      C750          C  0.1370701  0.8669968  0.0488673    0.00000       Uiso       1.00
      C751          C  0.1566788  0.8645950  0.0492012    0.00000       Uiso       1.00
       O19          O  0.2203105  0.8635207  0.0094877    0.00000       Uiso       1.00
      H271          H  0.1923167  0.8584126  0.9890944    0.00000       Uiso       1.00
      H272          H  0.1560012  0.8576037  0.9879408    0.00000       Uiso       1.00
      H273          H  0.1234355  0.8726239  0.0660281    0.00000       Uiso       1.00
      C752          C  0.0488327  0.8639813  0.1982752    0.00000       Uiso       1.00
      C753          C  0.0696601  0.8627114  0.1772832    0.00000       Uiso       1.00
      C754          C  0.0896628  0.8602836  0.1766155    0.00000       Uiso       1.00
      C755          C  0.1108509  0.8603018  0.1558748    0.00000       Uiso       1.00
      C756          C  0.1130701  0.8641452  0.1358162    0.00000       Uiso       1.00
      C757          C  0.0928121  0.8669137  0.1370349    0.00000       Uiso       1.00
      C758          C  0.0704672  0.8645016  0.1566419    0.00000       Uiso       1.00
       O20          O  0.0455072  0.8634881  0.2202899    0.00000       Uiso       1.00
      H274          H  0.0887850  0.8583602  0.1922812    0.00000       Uiso       1.00
      H275          H  0.1254382  0.8575547  0.1559683    0.00000       Uiso       1.00
      H276          H  0.0948989  0.8725392  0.1234083    0.00000       Uiso       1.00
      C759          C  0.0286796  0.8640044  0.0488359    0.00000       Uiso       1.00
      C760          C  0.0275692  0.8627153  0.0696527    0.00000       Uiso       1.00
      C761          C  0.0057948  0.8602533  0.0896363    0.00000       Uiso       1.00
      C762          C  0.0053499  0.8602408  0.1108176    0.00000       Uiso       1.00
      C763          C  0.0270289  0.8640806  0.1130428    0.00000       Uiso       1.00
      C764          C  0.0488505  0.8668822  0.0928021    0.00000       Uiso       1.00
      C765          C  0.0491940  0.8645118  0.0704662    0.00000       Uiso       1.00
       O21          O  0.0094896  0.8634825  0.0455001    0.00000       Uiso       1.00
      H277          H  0.9890895  0.8583273  0.0887411    0.00000       Uiso       1.00
      H278          H  0.9879165  0.8574757  0.1253961    0.00000       Uiso       1.00
      H279          H  0.0660101  0.8725007  0.0949010    0.00000       Uiso       1.00
      C766          C  0.0501158  0.8671791  0.0295772    0.00000       Uiso       1.00
      C767          C  0.0715667  0.8677607  0.0291168    0.00000       Uiso       1.00
      C768          C  0.0932974  0.8704187  0.0091173    0.00000       Uiso       1.00
      C769          C  0.1143249  0.8700266  0.0085962    0.00000       Uiso       1.00
      C770          C  0.1137100  0.8655512  0.0274527    0.00000       Uiso       1.00
      C771          C  0.0914467  0.8623662  0.0471655    0.00000       Uiso       1.00
      C772          C  0.0708840  0.8652151  0.0492652    0.00000       Uiso       1.00
       O22          O  0.0475474  0.8689889  0.0112229    0.00000       Uiso       1.00
      H280          H  0.0939311  0.8728980  0.9939050    0.00000       Uiso       1.00
      H281          H  0.1308626  0.8730615  0.9931818    0.00000       Uiso       1.00
      H282          H  0.0895784  0.8562174  0.0602863    0.00000       Uiso       1.00
      C773          C  0.0295548  0.8671139  0.1992578    0.00000       Uiso       1.00
      C774          C  0.0290878  0.8676729  0.1788405    0.00000       Uiso       1.00
      C775          C  0.0090670  0.8702781  0.1797468    0.00000       Uiso       1.00
      C776          C  0.0085453  0.8698698  0.1588416    0.00000       Uiso       1.00
      C777          C  0.0274266  0.8654358  0.1361351    0.00000       Uiso       1.00
      C778          C  0.0471584  0.8623000  0.1355217    0.00000       Uiso       1.00
      C779          C  0.0492522  0.8651611  0.1568412    0.00000       Uiso       1.00
       O23          O  0.0111969  0.8689161  0.2219869    0.00000       Uiso       1.00
      H283          H  0.9938417  0.8727394  0.1967987    0.00000       Uiso       1.00
      H284          H  0.9931114  0.8728676  0.1607457    0.00000       Uiso       1.00
      H285          H  0.0602992  0.8561693  0.1181304    0.00000       Uiso       1.00
      C780          C  0.1992845  0.8671818  0.0501075    0.00000       Uiso       1.00
      C781          C  0.1788714  0.8677567  0.0715522    0.00000       Uiso       1.00
      C782          C  0.1797783  0.8703547  0.0932670    0.00000       Uiso       1.00
      C783          C  0.1588740  0.8699427  0.1142862    0.00000       Uiso       1.00
      C784          C  0.1361669  0.8655212  0.1136839    0.00000       Uiso       1.00
      C785          C  0.1355553  0.8624030  0.0914341    0.00000       Uiso       1.00
      C786          C  0.1568756  0.8652585  0.0708791    0.00000       Uiso       1.00
       O24          O  0.2220036  0.8689573  0.0475369    0.00000       Uiso       1.00
      H286          H  0.1968318  0.8728065  0.0938926    0.00000       Uiso       1.00
      H287          H  0.1607799  0.8729245  0.1308068    0.00000       Uiso       1.00
      H288          H  0.1181627  0.8562845  0.0895583    0.00000       Uiso       1.00
       B10          B  0.2352176  0.8666449  0.0216804    0.00000       Uiso       1.00
       B11          B  0.0215379  0.8666251  0.2352061    0.00000       Uiso       1.00
       B12          B  0.0216844  0.8666493  0.0215452    0.00000       Uiso       1.00
