data_82
_audit_creation_date              0000-00-00
_audit_creation_method            'LanYouShi'
_symmetry_space_group_name_H-M    'P1'
_cell_length_a                    74.4260025
_cell_length_b                    74.4260025
_cell_length_c                    74.4263992
_cell_angle_alpha                 120.0001984
_cell_angle_beta                  59.9998016
_cell_angle_gamma                 120.0003967
loop_
_atom_site_label
_atom_site_type_symbol
_atom_site_fract_x
_atom_site_fract_y
_atom_site_fract_z
_atom_site_U_iso_or_equiv
_atom_site_adp_type
_atom_site_occupancy
        C1          C  0.5872967  0.4610912  0.5873008    0.00000       Uiso       1.00
        C2          C  0.5985785  0.4627076  0.5662082    0.00000       Uiso       1.00
        C3          C  0.5888872  0.4662403  0.5565194    0.00000       Uiso       1.00
        C4          C  0.5662038  0.4627074  0.5985824    0.00000       Uiso       1.00
        C5          C  0.5564221  0.4660989  0.5889168    0.00000       Uiso       1.00
        C6          C  0.5675681  0.4680659  0.5676819    0.00000       Uiso       1.00
        H1          H  0.5331095  0.4019302  0.3288901    0.00000       Uiso       1.00
        H2          H  0.5567450  0.4613706  0.6157773    0.00000       Uiso       1.00
        H3          H  0.6157734  0.4613710  0.5567495    0.00000       Uiso       1.00
        C7          C  0.5389098  0.4127042  0.2864980    0.00000       Uiso       1.00
        C8          C  0.5372934  0.4014224  0.2979252    0.00000       Uiso       1.00
        C9          C  0.5339016  0.4110875  0.3207640    0.00000       Uiso       1.00
       C10          C  0.5372935  0.4337970  0.2979254    0.00000       Uiso       1.00
       C11          C  0.5337606  0.4434856  0.3208383    0.00000       Uiso       1.00
       C12          C  0.5319343  0.4323217  0.3328192    0.00000       Uiso       1.00
        H4          H  0.5980704  0.6711159  0.5399359    0.00000       Uiso       1.00
        H5          H  0.5386303  0.4432559  0.2888527    0.00000       Uiso       1.00
        H6          H  0.5386299  0.3842274  0.2888523    0.00000       Uiso       1.00
       C13          C  0.2864928  0.4127028  0.5389124    0.00000       Uiso       1.00
       C14          C  0.2979203  0.4337957  0.5372962    0.00000       Uiso       1.00
       C15          C  0.3207596  0.4435766  0.5339019    0.00000       Uiso       1.00
       C16          C  0.2979201  0.4014210  0.5372960    0.00000       Uiso       1.00
       C17          C  0.3208335  0.4111108  0.5337597    0.00000       Uiso       1.00
       C18          C  0.3328157  0.4324295  0.5319316    0.00000       Uiso       1.00
        H7          H  0.5399305  0.4668899  0.5980731    0.00000       Uiso       1.00
        H8          H  0.2888472  0.3842260  0.5386325    0.00000       Uiso       1.00
        H9          H  0.2888475  0.4432544  0.5386329    0.00000       Uiso       1.00
       C19          C  0.5872981  0.7135082  0.5873023    0.00000       Uiso       1.00
       C20          C  0.5662052  0.7020807  0.5985839    0.00000       Uiso       1.00
       C21          C  0.5565161  0.6791677  0.5888923    0.00000       Uiso       1.00
       C22          C  0.5985798  0.7020808  0.5662096    0.00000       Uiso       1.00
       C23          C  0.5889138  0.6792420  0.5564273    0.00000       Uiso       1.00
       C24          C  0.5676788  0.6671863  0.5675731    0.00000       Uiso       1.00
       H10          H  0.3288876  0.4600671  0.5331069    0.00000       Uiso       1.00
       C25          C  0.4999994  0.4999995  0.5000007    0.00000       Uiso       1.00
       H11          H  0.6157749  0.7111538  0.5567510    0.00000       Uiso       1.00
       H12          H  0.5567465  0.7111535  0.6157787    0.00000       Uiso       1.00
       C26          C  0.6023258  0.4686645  0.5335600    0.00000       Uiso       1.00
        F1          F  0.5922241  0.4713937  0.5281979    0.00000       Uiso       1.00
        F2          F  0.6181486  0.4833321  0.5342218    0.00000       Uiso       1.00
        F3          F  0.6065527  0.4530621  0.5212645    0.00000       Uiso       1.00
       C27          C  0.5335578  0.6672224  0.6023323    0.00000       Uiso       1.00
        F4          F  0.5281950  0.6490294  0.5922305    0.00000       Uiso       1.00
        F5          F  0.5342221  0.6690391  0.6181536    0.00000       Uiso       1.00
        F6          F  0.5212613  0.6747563  0.6065619    0.00000       Uiso       1.00
       C28          C  0.5313354  0.4664445  0.3327816    0.00000       Uiso       1.00
        F7          F  0.5286061  0.4718082  0.3509749    0.00000       Uiso       1.00
        F8          F  0.5469372  0.4787400  0.3252473    0.00000       Uiso       1.00
        F9          F  0.5166674  0.4657809  0.3309636    0.00000       Uiso       1.00
       C29          C  0.3327733  0.3976644  0.5313306    0.00000       Uiso       1.00
       F10          F  0.3509678  0.4077613  0.5285988    0.00000       Uiso       1.00
       F11          F  0.3252394  0.3934357  0.5469318    0.00000       Uiso       1.00
       F12          F  0.3309513  0.3818425  0.5166630    0.00000       Uiso       1.00
       C30          C  0.5570970  0.4721030  0.5574439    0.00000       Uiso       1.00
       C31          C  0.5615163  0.4637187  0.5343884    0.00000       Uiso       1.00
       C32          C  0.5519114  0.4675739  0.5248501    0.00000       Uiso       1.00
       C33          C  0.5425398  0.4844460  0.5706719    0.00000       Uiso       1.00
       C34          C  0.5326824  0.4882375  0.5613551    0.00000       Uiso       1.00
       C35          C  0.5374015  0.4798220  0.5383688    0.00000       Uiso       1.00
       H13          H  0.5390925  0.4915023  0.5882861    0.00000       Uiso       1.00
       H14          H  0.5722408  0.4538974  0.5237802    0.00000       Uiso       1.00
       C36          C  0.5278964  0.4425572  0.3575641    0.00000       Uiso       1.00
       C37          C  0.5155451  0.4293285  0.3712361    0.00000       Uiso       1.00
       C38          C  0.5117539  0.4386440  0.3942014    0.00000       Uiso       1.00
       C39          C  0.5362900  0.4656110  0.3678150    0.00000       Uiso       1.00
       C40          C  0.5324350  0.4751470  0.3908120    0.00000       Uiso       1.00
       C41          C  0.5201785  0.4616294  0.4040516    0.00000       Uiso       1.00
       H15          H  0.5461194  0.4762228  0.3578816    0.00000       Uiso       1.00
       H16          H  0.5084817  0.4117138  0.3641253    0.00000       Uiso       1.00
       C42          C  0.3575620  0.4429012  0.5278909    0.00000       Uiso       1.00
       C43          C  0.3712322  0.4574590  0.5155476    0.00000       Uiso       1.00
       C44          C  0.3942001  0.4673197  0.5117559    0.00000       Uiso       1.00
       C45          C  0.3678143  0.4384839  0.5362757    0.00000       Uiso       1.00
       C46          C  0.3908113  0.4480890  0.5324197    0.00000       Uiso       1.00
       C47          C  0.4040520  0.4625995  0.5201726    0.00000       Uiso       1.00
       H17          H  0.3578831  0.4277628  0.5460982    0.00000       Uiso       1.00
       H18          H  0.3641139  0.4609025  0.5084923    0.00000       Uiso       1.00
       C48          C  0.5574411  0.6424402  0.5571018    0.00000       Uiso       1.00
       C49          C  0.5343865  0.6321890  0.5615137    0.00000       Uiso       1.00
       C50          C  0.5248482  0.6091905  0.5519105    0.00000       Uiso       1.00
       C51          C  0.5706686  0.6287677  0.5425510    0.00000       Uiso       1.00
       C52          C  0.5613519  0.6058021  0.5326928    0.00000       Uiso       1.00
       C53          C  0.5383664  0.5959509  0.5374070    0.00000       Uiso       1.00
       H19          H  0.5882823  0.6358792  0.5391089    0.00000       Uiso       1.00
       H20          H  0.5237819  0.6421303  0.5722306    0.00000       Uiso       1.00
       C54          C  0.5019439  0.5991095  0.5565879    0.00000       Uiso       1.00
       C55          C  0.4925752  0.5762461  0.5472375    0.00000       Uiso       1.00
       C56          C  0.5405875  0.4980519  0.4008921    0.00000       Uiso       1.00
       C57          C  0.5364462  0.5074202  0.4237544    0.00000       Uiso       1.00
       H21          H  0.5500762  0.5087841  0.3910799    0.00000       Uiso       1.00
       H22          H  0.4912157  0.6089249  0.5676443    0.00000       Uiso       1.00
       C58          C  0.4673886  0.5659565  0.5530892    0.00000       Uiso       1.00
       F13          F  0.4627270  0.5474348  0.5441098    0.00000       Uiso       1.00
       F14          F  0.4593666  0.5693224  0.5716032    0.00000       Uiso       1.00
       F15          F  0.4614277  0.5734956  0.5478864    0.00000       Uiso       1.00
       C59          C  0.5454986  0.5326070  0.4340383    0.00000       Uiso       1.00
       F16          F  0.5406215  0.5372722  0.4525599    0.00000       Uiso       1.00
       F17          F  0.5642013  0.5385628  0.4264953    0.00000       Uiso       1.00
       F18          F  0.5383742  0.5406305  0.4306723    0.00000       Uiso       1.00
       C60          C  0.5277234  0.4838091  0.5288766    0.00000       Uiso       1.00
       C61          C  0.5327597  0.4757798  0.5058722    0.00000       Uiso       1.00
       C62          C  0.5236030  0.4803343  0.4964784    0.00000       Uiso       1.00
       C63          C  0.5132989  0.4961146  0.5423867    0.00000       Uiso       1.00
       C64          C  0.5040278  0.5002996  0.5328442    0.00000       Uiso       1.00
       C65          C  0.5087987  0.4925070  0.5097131    0.00000       Uiso       1.00
       H23          H  0.4898273  0.4565405  0.4733903    0.00000       Uiso       1.00
       H24          H  0.4673318  0.4712770  0.5251887    0.00000       Uiso       1.00
       C66          C  0.5161931  0.4711220  0.4272081    0.00000       Uiso       1.00
       C67          C  0.5038797  0.4576120  0.4404294    0.00000       Uiso       1.00
       C68          C  0.4996954  0.4671543  0.4634288    0.00000       Uiso       1.00
       C69          C  0.5242325  0.4941271  0.4371465    0.00000       Uiso       1.00
       C70          C  0.5196762  0.5035207  0.4602523    0.00000       Uiso       1.00
       C71          C  0.5074928  0.4902861  0.4739960    0.00000       Uiso       1.00
       H25          H  0.5287137  0.4748055  0.4787576    0.00000       Uiso       1.00
       H26          H  0.5434599  0.5266159  0.4933046    0.00000       Uiso       1.00
       C72          C  0.4272076  0.4722762  0.5161893    0.00000       Uiso       1.00
       C73          C  0.4404283  0.4867037  0.5038859    0.00000       Uiso       1.00
       C74          C  0.4634275  0.4959750  0.4997024    0.00000       Uiso       1.00
       C75          C  0.4371456  0.4672376  0.5242193    0.00000       Uiso       1.00
       C76          C  0.4602516  0.4763922  0.5196633    0.00000       Uiso       1.00
       C77          C  0.4739945  0.4911992  0.5074923    0.00000       Uiso       1.00
       H27          H  0.4787531  0.5326623  0.5287064    0.00000       Uiso       1.00
       H28          H  0.4933138  0.5101602  0.5434589    0.00000       Uiso       1.00
       C78          C  0.5288743  0.5727936  0.5277289    0.00000       Uiso       1.00
       C79          C  0.5058681  0.5628538  0.5327619    0.00000       Uiso       1.00
       C80          C  0.4964747  0.5397466  0.5236051    0.00000       Uiso       1.00
       C81          C  0.5423855  0.5595734  0.5133039    0.00000       Uiso       1.00
       C82          C  0.5328437  0.5365741  0.5040290    0.00000       Uiso       1.00
       C83          C  0.5097113  0.5260048  0.5088015    0.00000       Uiso       1.00
       H29          H  0.4733911  0.5066977  0.4898498    0.00000       Uiso       1.00
       H30          H  0.5252135  0.5212426  0.4673332    0.00000       Uiso       1.00
       C84          C  0.4237534  0.4527563  0.5364230    0.00000       Uiso       1.00
       C85          C  0.4008904  0.4434057  0.5405645    0.00000       Uiso       1.00
       C86          C  0.4304025  0.4913495  0.4956594    0.00000       Uiso       1.00
       C87          C  0.4075970  0.4817613  0.4995178    0.00000       Uiso       1.00
       C88          C  0.5472414  0.4635761  0.4925777    0.00000       Uiso       1.00
       C89          C  0.5565947  0.4594332  0.5019450    0.00000       Uiso       1.00
       C90          C  0.5086517  0.5043395  0.5652858    0.00000       Uiso       1.00
       C91          C  0.5182396  0.5004757  0.5746422    0.00000       Uiso       1.00
       C92          C  0.5652840  0.5696006  0.5086603    0.00000       Uiso       1.00
       C93          C  0.5746384  0.5924074  0.5182522    0.00000       Uiso       1.00
       C94          C  0.4956453  0.4347135  0.4304034    0.00000       Uiso       1.00
       C95          C  0.4995075  0.4253576  0.4075964    0.00000       Uiso       1.00
       H31          H  0.4860551  0.4239862  0.4402395    0.00000       Uiso       1.00
       H32          H  0.4402375  0.5023296  0.4860770    0.00000       Uiso       1.00
       H33          H  0.3910773  0.4323422  0.5500451    0.00000       Uiso       1.00
       H34          H  0.4976715  0.5139222  0.5760161    0.00000       Uiso       1.00
       H35          H  0.5676588  0.4499524  0.4912172    0.00000       Uiso       1.00
       H36          H  0.5760118  0.5597658  0.4976784    0.00000       Uiso       1.00
       C96          C  0.5531034  0.4545359  0.4673901    0.00000       Uiso       1.00
       F19          F  0.5649656  0.4451867  0.4596263    0.00000       Uiso       1.00
       F20          F  0.5374802  0.4429510  0.4629753    0.00000       Uiso       1.00
       F21          F  0.5612037  0.4687780  0.4609237    0.00000       Uiso       1.00
       C97          C  0.5127643  0.5099424  0.5997918    0.00000       Uiso       1.00
       F22          F  0.5008714  0.5192572  0.6075547    0.00000       Uiso       1.00
       F23          F  0.5048387  0.4959300  0.6065348    0.00000       Uiso       1.00
       F24          F  0.5285299  0.5216478  0.6039028    0.00000       Uiso       1.00
       C98          C  0.5997881  0.6026107  0.5127783    0.00000       Uiso       1.00
       F25          F  0.6075481  0.5891635  0.5008867    0.00000       Uiso       1.00
       F26          F  0.6065357  0.6154410  0.5048518    0.00000       Uiso       1.00
       F27          F  0.6038976  0.6107806  0.5285445    0.00000       Uiso       1.00
       C99          C  0.4900273  0.4002087  0.3973951    0.00000       Uiso       1.00
       F28          F  0.4807079  0.3924495  0.4108433    0.00000       Uiso       1.00
       F29          F  0.4783234  0.3961044  0.3892256    0.00000       Uiso       1.00
       F30          F  0.5040329  0.3934556  0.3845650    0.00000       Uiso       1.00
      C100          C  0.4340388  0.4468943  0.5454631    0.00000       Uiso       1.00
       F31          F  0.4205911  0.4350323  0.5548126    0.00000       Uiso       1.00
       F32          F  0.4466469  0.4387937  0.5312210    0.00000       Uiso       1.00
       F33          F  0.4424923  0.4625175  0.5570475    0.00000       Uiso       1.00
      C101          C  0.3973972  0.4872381  0.4900447    0.00000       Uiso       1.00
       F34          F  0.4108462  0.4991307  0.4807307    0.00000       Uiso       1.00
       F35          F  0.3892280  0.4714732  0.4783373    0.00000       Uiso       1.00
       F36          F  0.3845669  0.4951649  0.5040534    0.00000       Uiso       1.00
      C102          C  0.5872957  0.4610901  0.7576289    0.00000       Uiso       1.00
      C103          C  0.5662028  0.4627064  0.7690562    0.00000       Uiso       1.00
      C104          C  0.5565139  0.4662389  0.7919690    0.00000       Uiso       1.00
      C105          C  0.5985773  0.4627064  0.7690561    0.00000       Uiso       1.00
      C106          C  0.5889115  0.4660977  0.7918950    0.00000       Uiso       1.00
      C107          C  0.5676764  0.4680645  0.8039510    0.00000       Uiso       1.00
       H37          H  0.3288818  0.4019257  0.0110646    0.00000       Uiso       1.00
       H38          H  0.6157722  0.4613698  0.7599834    0.00000       Uiso       1.00
       H39          H  0.5567442  0.4613698  0.7599834    0.00000       Uiso       1.00
      C108          C  0.2864892  0.4126992  0.0584306    0.00000       Uiso       1.00
      C109          C  0.2979167  0.4014176  0.0373379    0.00000       Uiso       1.00
      C110          C  0.3207556  0.4110829  0.0275560    0.00000       Uiso       1.00
      C111          C  0.2979166  0.4337921  0.0697124    0.00000       Uiso       1.00
      C112          C  0.3208297  0.4434808  0.0600210    0.00000       Uiso       1.00
      C113          C  0.3328108  0.4323171  0.0387024    0.00000       Uiso       1.00
       H40          H  0.5399288  0.6711128  0.0042457    0.00000       Uiso       1.00
       H41          H  0.2888437  0.4432507  0.0869072    0.00000       Uiso       1.00
       H42          H  0.2888438  0.3842227  0.0278791    0.00000       Uiso       1.00
      C114          C  0.5389050  0.4126994  0.0584305    0.00000       Uiso       1.00
      C115          C  0.5372887  0.4337922  0.0697122    0.00000       Uiso       1.00
      C116          C  0.5338945  0.4435732  0.0600484    0.00000       Uiso       1.00
      C117          C  0.5372887  0.4014178  0.0373377    0.00000       Uiso       1.00
      C118          C  0.5337524  0.4111075  0.0276506    0.00000       Uiso       1.00
      C119          C  0.5319243  0.4324261  0.0388153    0.00000       Uiso       1.00
       H43          H  0.5980676  0.4668888  0.8000214    0.00000       Uiso       1.00
       H44          H  0.5386253  0.3842228  0.0278790    0.00000       Uiso       1.00
       H45          H  0.5386253  0.4432509  0.0869071    0.00000       Uiso       1.00
      C120          C  0.5872954  0.7135054  0.0100442    0.00000       Uiso       1.00
      C121          C  0.5985770  0.7020779  0.0084278    0.00000       Uiso       1.00
      C122          C  0.5888854  0.6791650  0.0048954    0.00000       Uiso       1.00
      C123          C  0.5662026  0.7020779  0.0084278    0.00000       Uiso       1.00
      C124          C  0.5564203  0.6792390  0.0050371    0.00000       Uiso       1.00
      C125          C  0.5675662  0.6671834  0.0030705    0.00000       Uiso       1.00
       H46          H  0.5330994  0.4600636  0.0692060    0.00000       Uiso       1.00
      C126          C  0.4999937  0.4999967  0.9711345    0.00000       Uiso       1.00
       H47          H  0.5567439  0.7111508  0.0097645    0.00000       Uiso       1.00
       H48          H  0.6157719  0.7111508  0.0097645    0.00000       Uiso       1.00
      C127          C  0.5335543  0.4686629  0.8039140    0.00000       Uiso       1.00
       F37          F  0.5281920  0.4713919  0.8221070    0.00000       Uiso       1.00
       F38          F  0.5342161  0.4833304  0.8020971    0.00000       Uiso       1.00
       F39          F  0.5212587  0.4530605  0.7963802    0.00000       Uiso       1.00
      C128          C  0.6023255  0.6672197  0.0024681    0.00000       Uiso       1.00
       F40          F  0.5922239  0.6490269  0.9997399    0.00000       Uiso       1.00
       F41          F  0.6181471  0.6690368  0.9877997    0.00000       Uiso       1.00
       F42          F  0.6065550  0.6747535  0.0180688    0.00000       Uiso       1.00
      C129          C  0.3327729  0.4664397  0.0734621    0.00000       Uiso       1.00
       F43          F  0.3509664  0.4718036  0.0633618    0.00000       Uiso       1.00
       F44          F  0.3252386  0.4787352  0.0776902    0.00000       Uiso       1.00
       F45          F  0.3309549  0.4657760  0.0892842    0.00000       Uiso       1.00
      C130          C  0.5313234  0.3976613  0.0046935    0.00000       Uiso       1.00
       F46          F  0.5285919  0.4077584  0.9993283    0.00000       Uiso       1.00
       F47          F  0.5469251  0.3934331  0.9923979    0.00000       Uiso       1.00
       F48          F  0.5166558  0.3818393  0.0053611    0.00000       Uiso       1.00
      C131          C  0.5574381  0.4721014  0.8286973    0.00000       Uiso       1.00
      C132          C  0.5343825  0.4637168  0.8389491    0.00000       Uiso       1.00
      C133          C  0.5248439  0.4675718  0.8619475    0.00000       Uiso       1.00
      C134          C  0.5706661  0.4844444  0.8423694    0.00000       Uiso       1.00
      C135          C  0.5613492  0.4882357  0.8653350    0.00000       Uiso       1.00
      C136          C  0.5383626  0.4798200  0.8751868    0.00000       Uiso       1.00
       H49          H  0.5882804  0.4915008  0.8352588    0.00000       Uiso       1.00
       H50          H  0.5237743  0.4538956  0.8290116    0.00000       Uiso       1.00
      C137          C  0.3575559  0.4425529  0.0282310    0.00000       Uiso       1.00
      C138          C  0.3712281  0.4293244  0.0136815    0.00000       Uiso       1.00
      C139          C  0.3941935  0.4386400  0.0038230    0.00000       Uiso       1.00
      C140          C  0.3678068  0.4656067  0.0326405    0.00000       Uiso       1.00
      C141          C  0.3908039  0.4751429  0.0230346    0.00000       Uiso       1.00
      C142          C  0.4040438  0.4616254  0.0085336    0.00000       Uiso       1.00
       H51          H  0.3578733  0.4762184  0.0433565    0.00000       Uiso       1.00
       H52          H  0.3641173  0.4117096  0.0102408    0.00000       Uiso       1.00
      C143          C  0.5278836  0.4428979  0.0285816    0.00000       Uiso       1.00
      C144          C  0.5155401  0.4574556  0.0418129    0.00000       Uiso       1.00
      C145          C  0.5117485  0.4673163  0.0324974    0.00000       Uiso       1.00
      C146          C  0.5362686  0.4384808  0.0055273    0.00000       Uiso       1.00
      C147          C  0.5324128  0.4480863  0.9959921    0.00000       Uiso       1.00
      C148          C  0.5201654  0.4625963  0.0095087    0.00000       Uiso       1.00
       H53          H  0.5460914  0.4277601  0.9949152    0.00000       Uiso       1.00
       H54          H  0.5084847  0.4608989  0.0594299    0.00000       Uiso       1.00
      C149          C  0.5570950  0.6424375  0.9990336    0.00000       Uiso       1.00
      C150          C  0.5615066  0.6321861  0.0074245    0.00000       Uiso       1.00
      C151          C  0.5519034  0.6091875  0.0035672    0.00000       Uiso       1.00
      C152          C  0.5425442  0.6287650  0.9866843    0.00000       Uiso       1.00
      C153          C  0.5326859  0.6057993  0.9828933    0.00000       Uiso       1.00
      C154          C  0.5374001  0.5959481  0.9913133    0.00000       Uiso       1.00
       H55          H  0.5391021  0.6358765  0.9796244    0.00000       Uiso       1.00
       H56          H  0.5722235  0.6421273  0.0172534    0.00000       Uiso       1.00
      C155          C  0.5565809  0.5991065  0.0117129    0.00000       Uiso       1.00
      C156          C  0.5472304  0.5762430  0.0075684    0.00000       Uiso       1.00
      C157          C  0.4008841  0.4980478  0.0277070    0.00000       Uiso       1.00
      C158          C  0.4237466  0.5074164  0.0183545    0.00000       Uiso       1.00
       H57          H  0.3910717  0.5087798  0.0387628    0.00000       Uiso       1.00
       H58          H  0.5676373  0.6089219  0.0212001    0.00000       Uiso       1.00
      C159          C  0.5530820  0.5659534  0.0166135    0.00000       Uiso       1.00
       F49          F  0.5441026  0.5474317  0.0117327    0.00000       Uiso       1.00
       F50          F  0.5715962  0.5693195  0.0094874    0.00000       Uiso       1.00
       F51          F  0.5478792  0.5734923  0.0353163    0.00000       Uiso       1.00
      C160          C  0.4340304  0.5326031  0.0242051    0.00000       Uiso       1.00
       F52          F  0.4525523  0.5372685  0.0152257    0.00000       Uiso       1.00
       F53          F  0.4264874  0.5385589  0.0190014    0.00000       Uiso       1.00
       F54          F  0.4306644  0.5406266  0.0427191    0.00000       Uiso       1.00
      C161          C  0.5288703  0.4838069  0.8983441    0.00000       Uiso       1.00
      C162          C  0.5058657  0.4757774  0.9082829    0.00000       Uiso       1.00
      C163          C  0.4964717  0.4803317  0.9313880    0.00000       Uiso       1.00
      C164          C  0.5423804  0.4961124  0.9115639    0.00000       Uiso       1.00
      C165          C  0.5328377  0.5002971  0.9345624    0.00000       Uiso       1.00
      C166          C  0.5097064  0.4925044  0.9451302    0.00000       Uiso       1.00
       H59          H  0.4733832  0.4565376  0.9644576    0.00000       Uiso       1.00
       H60          H  0.5251821  0.4712744  0.9498910    0.00000       Uiso       1.00
      C167          C  0.4272006  0.4711185  0.9988557    0.00000       Uiso       1.00
      C168          C  0.4404221  0.4576087  0.9844375    0.00000       Uiso       1.00
      C169          C  0.4634217  0.4671513  0.9751649    0.00000       Uiso       1.00
      C170          C  0.4371388  0.4941234  0.0038828    0.00000       Uiso       1.00
      C171          C  0.4602451  0.5035175  0.9947273    0.00000       Uiso       1.00
      C172          C  0.4739890  0.4902830  0.9799322    0.00000       Uiso       1.00
       H61          H  0.4787508  0.4748028  0.9384692    0.00000       Uiso       1.00
       H62          H  0.4932977  0.5266131  0.9609868    0.00000       Uiso       1.00
      C173          C  0.5161821  0.4722730  0.0000132    0.00000       Uiso       1.00
      C174          C  0.5038785  0.4867003  0.0135236    0.00000       Uiso       1.00
      C175          C  0.4996951  0.4959717  0.0039795    0.00000       Uiso       1.00
      C176          C  0.5242125  0.4672349  0.9770071    0.00000       Uiso       1.00
      C177          C  0.5196565  0.4763895  0.9676119    0.00000       Uiso       1.00
      C178          C  0.5074854  0.4911963  0.9808471    0.00000       Uiso       1.00
       H63          H  0.5286996  0.5326594  0.9963377    0.00000       Uiso       1.00
       H64          H  0.5434523  0.5101578  0.9445224    0.00000       Uiso       1.00
      C179          C  0.5277220  0.5727908  0.9873261    0.00000       Uiso       1.00
      C180          C  0.5327550  0.5628511  0.9953592    0.00000       Uiso       1.00
      C181          C  0.5235982  0.5397438  0.9908021    0.00000       Uiso       1.00
      C182          C  0.5132970  0.5595707  0.9750197    0.00000       Uiso       1.00
      C183          C  0.5040221  0.5365713  0.9708368    0.00000       Uiso       1.00
      C184          C  0.5087946  0.5260020  0.9786271    0.00000       Uiso       1.00
       H65          H  0.4898424  0.5066942  0.0145911    0.00000       Uiso       1.00
       H66          H  0.4673259  0.5212394  0.9998311    0.00000       Uiso       1.00
      C185          C  0.5364164  0.4527538  0.9637142    0.00000       Uiso       1.00
      C186          C  0.5405577  0.4434031  0.9730849    0.00000       Uiso       1.00
      C187          C  0.4956518  0.4913460  0.0364218    0.00000       Uiso       1.00
      C188          C  0.4995102  0.4817577  0.0457804    0.00000       Uiso       1.00
      C189          C  0.4925712  0.4635736  0.8948919    0.00000       Uiso       1.00
      C190          C  0.5019387  0.4594310  0.8720285    0.00000       Uiso       1.00
      C191          C  0.5652796  0.5043375  0.9015372    0.00000       Uiso       1.00
      C192          C  0.5746363  0.5004739  0.8787289    0.00000       Uiso       1.00
      C193          C  0.5086534  0.5695979  0.9667922    0.00000       Uiso       1.00
      C194          C  0.5182453  0.5924047  0.9706528    0.00000       Uiso       1.00
      C195          C  0.4303961  0.4347102  0.9797993    0.00000       Uiso       1.00
      C196          C  0.4075889  0.4253541  0.9893882    0.00000       Uiso       1.00
       H67          H  0.4402323  0.4239830  0.9688259    0.00000       Uiso       1.00
       H68          H  0.4860693  0.5023260  0.0471494    0.00000       Uiso       1.00
       H69          H  0.5500386  0.4323398  0.9623537    0.00000       Uiso       1.00
       H70          H  0.5760099  0.5139202  0.9113697    0.00000       Uiso       1.00
       H71          H  0.4912109  0.4499502  0.8622114    0.00000       Uiso       1.00
       H72          H  0.4976715  0.5597630  0.9572114    0.00000       Uiso       1.00
      C197          C  0.4673835  0.4545332  0.9051773    0.00000       Uiso       1.00
       F55          F  0.4596196  0.4451841  0.8917297    0.00000       Uiso       1.00
       F56          F  0.4629685  0.4429483  0.9136302    0.00000       Uiso       1.00
       F57          F  0.4609169  0.4687752  0.9177857    0.00000       Uiso       1.00
      C198          C  0.5997860  0.5099408  0.8685215    0.00000       Uiso       1.00
       F58          F  0.6075489  0.5192556  0.8819662    0.00000       Uiso       1.00
       F59          F  0.6065292  0.4959285  0.8556915    0.00000       Uiso       1.00
       F60          F  0.6038972  0.5216463  0.8603504    0.00000       Uiso       1.00
      C199          C  0.5127715  0.6026080  0.9611804    0.00000       Uiso       1.00
       F61          F  0.5008799  0.5891608  0.9518649    0.00000       Uiso       1.00
       F62          F  0.5048448  0.6154381  0.9751898    0.00000       Uiso       1.00
       F63          F  0.5285379  0.6107781  0.9494748    0.00000       Uiso       1.00
      C200          C  0.3973876  0.4002052  0.9839205    0.00000       Uiso       1.00
       F64          F  0.4108359  0.3924461  0.9720324    0.00000       Uiso       1.00
       F65          F  0.3892179  0.3961007  0.9996895    0.00000       Uiso       1.00
       F66          F  0.3845575  0.3934520  0.9759920    0.00000       Uiso       1.00
      C201          C  0.5454566  0.4468920  0.9385267    0.00000       Uiso       1.00
       F67          F  0.5548062  0.4350301  0.9307628    0.00000       Uiso       1.00
       F68          F  0.5312145  0.4387913  0.9320601    0.00000       Uiso       1.00
       F69          F  0.5570412  0.4625152  0.9341120    0.00000       Uiso       1.00
      C202          C  0.4900369  0.4872344  0.0709302    0.00000       Uiso       1.00
       F70          F  0.4807228  0.4991269  0.0786879    0.00000       Uiso       1.00
       F71          F  0.4783295  0.4714693  0.0750416    0.00000       Uiso       1.00
       F72          F  0.5040457  0.4951612  0.0776785    0.00000       Uiso       1.00
      C203          C  0.7576256  0.4610912  0.5873008    0.00000       Uiso       1.00
      C204          C  0.7690530  0.4627074  0.5985824    0.00000       Uiso       1.00
      C205          C  0.7919660  0.4662402  0.5888911    0.00000       Uiso       1.00
      C206          C  0.7690532  0.4627076  0.5662082    0.00000       Uiso       1.00
      C207          C  0.7918922  0.4660991  0.5564264    0.00000       Uiso       1.00
      C208          C  0.8039480  0.4680659  0.5675722    0.00000       Uiso       1.00
       H73          H  0.0110640  0.4019290  0.5331123    0.00000       Uiso       1.00
       H74          H  0.7599804  0.4613710  0.5567495    0.00000       Uiso       1.00
       H75          H  0.7599800  0.4613707  0.6157773    0.00000       Uiso       1.00
      C209          C  0.0584302  0.4127027  0.5389124    0.00000       Uiso       1.00
      C210          C  0.0373374  0.4014210  0.5372960    0.00000       Uiso       1.00
      C211          C  0.0275555  0.4110862  0.5339044    0.00000       Uiso       1.00
      C212          C  0.0697120  0.4337957  0.5372962    0.00000       Uiso       1.00
      C213          C  0.0600206  0.4434843  0.5337635    0.00000       Uiso       1.00
      C214          C  0.0387019  0.4323205  0.5319372    0.00000       Uiso       1.00
       H76          H  0.0042446  0.6711156  0.5980743    0.00000       Uiso       1.00
       H77          H  0.0869070  0.4432544  0.5386329    0.00000       Uiso       1.00
       H78          H  0.0278786  0.3842260  0.5386326    0.00000       Uiso       1.00
      C215          C  0.0584316  0.4127044  0.2864982    0.00000       Uiso       1.00
      C216          C  0.0697133  0.4337972  0.2979257    0.00000       Uiso       1.00
      C217          C  0.0600493  0.4435780  0.3207648    0.00000       Uiso       1.00
      C218          C  0.0373387  0.4014226  0.2979255    0.00000       Uiso       1.00
      C219          C  0.0276514  0.4111122  0.3208387    0.00000       Uiso       1.00
      C220          C  0.0388161  0.4324307  0.3328209    0.00000       Uiso       1.00
       H79          H  0.8000187  0.4668903  0.5399349    0.00000       Uiso       1.00
       H80          H  0.0278799  0.3842276  0.2888526    0.00000       Uiso       1.00
       H81          H  0.0869083  0.4432561  0.2888530    0.00000       Uiso       1.00
      C221          C  0.0100432  0.7135082  0.5873023    0.00000       Uiso       1.00
      C222          C  0.0084269  0.7020809  0.5662096    0.00000       Uiso       1.00
      C223          C  0.0048945  0.6791680  0.5565205    0.00000       Uiso       1.00
      C224          C  0.0084268  0.7020807  0.5985839    0.00000       Uiso       1.00
      C225          C  0.0050361  0.6792418  0.5889178    0.00000       Uiso       1.00
      C226          C  0.0030695  0.6671863  0.5676829    0.00000       Uiso       1.00
       H82          H  0.0692069  0.4600684  0.3288928    0.00000       Uiso       1.00
      C227          C  0.9711329  0.4999996  0.5000035    0.00000       Uiso       1.00
       H83          H  0.0097634  0.7111535  0.6157787    0.00000       Uiso       1.00
       H84          H  0.0097637  0.7111539  0.5567510    0.00000       Uiso       1.00
      C228          C  0.8039110  0.4686641  0.6023295    0.00000       Uiso       1.00
       F73          F  0.8221040  0.4713933  0.5922279    0.00000       Uiso       1.00
       F74          F  0.8020939  0.4833316  0.6181523    0.00000       Uiso       1.00
       F75          F  0.7963771  0.4530617  0.6065564    0.00000       Uiso       1.00
      C229          C  0.0024674  0.6672229  0.5335625    0.00000       Uiso       1.00
       F76          F  0.9997383  0.6490298  0.5281996    0.00000       Uiso       1.00
       F77          F  0.9877980  0.6690396  0.5342268    0.00000       Uiso       1.00
       F78          F  0.0180683  0.6747568  0.5212660    0.00000       Uiso       1.00
      C230          C  0.0734618  0.4664434  0.5313383    0.00000       Uiso       1.00
       F79          F  0.0633615  0.4718072  0.5286091    0.00000       Uiso       1.00
       F80          F  0.0776898  0.4787388  0.5469400    0.00000       Uiso       1.00
       F81          F  0.0892841  0.4657798  0.5166704    0.00000       Uiso       1.00
      C231          C  0.0046941  0.3976657  0.3327785    0.00000       Uiso       1.00
       F82          F  0.9993278  0.4077624  0.3509728    0.00000       Uiso       1.00
       F83          F  0.9923975  0.3934371  0.3252447    0.00000       Uiso       1.00
       F84          F  0.0053616  0.3818437  0.3309564    0.00000       Uiso       1.00
      C232          C  0.8286946  0.4721031  0.5571011    0.00000       Uiso       1.00
      C233          C  0.8389465  0.4637185  0.5615202    0.00000       Uiso       1.00
      C234          C  0.8619450  0.4675737  0.5519153    0.00000       Uiso       1.00
      C235          C  0.8423670  0.4844462  0.5425441    0.00000       Uiso       1.00
      C236          C  0.8653327  0.4882377  0.5326867    0.00000       Uiso       1.00
      C237          C  0.8751845  0.4798220  0.5374056    0.00000       Uiso       1.00
       H85          H  0.8352563  0.4915026  0.5390969    0.00000       Uiso       1.00
       H86          H  0.8290088  0.4538972  0.5722446    0.00000       Uiso       1.00
      C238          C  0.0282305  0.4425563  0.5278995    0.00000       Uiso       1.00
      C239          C  0.0136810  0.4293277  0.5155483    0.00000       Uiso       1.00
      C240          C  0.0038224  0.4386433  0.5117573    0.00000       Uiso       1.00
      C241          C  0.0326400  0.4656101  0.5362930    0.00000       Uiso       1.00
      C242          C  0.0230340  0.4751463  0.5324383    0.00000       Uiso       1.00
      C243          C  0.0085330  0.4616287  0.5201820    0.00000       Uiso       1.00
       H87          H  0.0433560  0.4762218  0.5461224    0.00000       Uiso       1.00
       H88          H  0.0102403  0.4117130  0.5084849    0.00000       Uiso       1.00
      C244          C  0.0285822  0.4429023  0.3575670    0.00000       Uiso       1.00
      C245          C  0.0418134  0.4574600  0.3712371    0.00000       Uiso       1.00
      C246          C  0.0324978  0.4673205  0.3942049    0.00000       Uiso       1.00
      C247          C  0.0055276  0.4384850  0.3678193    0.00000       Uiso       1.00
      C248          C  0.9959913  0.4480899  0.3908162    0.00000       Uiso       1.00
      C249          C  0.0095089  0.4626003  0.4040567    0.00000       Uiso       1.00
       H89          H  0.9949146  0.4277640  0.3578883    0.00000       Uiso       1.00
       H90          H  0.0594305  0.4609035  0.3641187    0.00000       Uiso       1.00
      C250          C  0.9990318  0.6424402  0.5574452    0.00000       Uiso       1.00
      C251          C  0.0074238  0.6321893  0.5343908    0.00000       Uiso       1.00
      C252          C  0.0035666  0.6091907  0.5248525    0.00000       Uiso       1.00
      C253          C  0.9866824  0.6287675  0.5706725    0.00000       Uiso       1.00
      C254          C  0.9828915  0.6058019  0.5613559    0.00000       Uiso       1.00
      C255          C  0.9913116  0.5959509  0.5383705    0.00000       Uiso       1.00
       H91          H  0.9796223  0.6358789  0.5882862    0.00000       Uiso       1.00
       H92          H  0.0172528  0.6421306  0.5237863    0.00000       Uiso       1.00
      C256          C  0.0117124  0.5991099  0.5019483    0.00000       Uiso       1.00
      C257          C  0.0075680  0.5762465  0.4925796    0.00000       Uiso       1.00
      C258          C  0.0277064  0.4980511  0.5405908    0.00000       Uiso       1.00
      C259          C  0.0183539  0.5074196  0.5364496    0.00000       Uiso       1.00
       H93          H  0.0387622  0.5087831  0.5500794    0.00000       Uiso       1.00
       H94          H  0.0211997  0.6089254  0.4912202    0.00000       Uiso       1.00
      C260          C  0.0166133  0.5659571  0.4673932    0.00000       Uiso       1.00
       F85          F  0.0117325  0.5474353  0.4627316    0.00000       Uiso       1.00
       F86          F  0.0094872  0.5693231  0.4593714    0.00000       Uiso       1.00
       F87          F  0.0353162  0.5734962  0.4614323    0.00000       Uiso       1.00
      C261          C  0.0242044  0.5326063  0.5455021    0.00000       Uiso       1.00
       F88          F  0.0152251  0.5372717  0.5406251    0.00000       Uiso       1.00
       F89          F  0.0190006  0.5385621  0.5642046    0.00000       Uiso       1.00
       F90          F  0.0427186  0.5406300  0.5383777    0.00000       Uiso       1.00
      C262          C  0.8983420  0.4838092  0.5277275    0.00000       Uiso       1.00
      C263          C  0.9082808  0.4757797  0.5327637    0.00000       Uiso       1.00
      C264          C  0.9313860  0.4803342  0.5236070    0.00000       Uiso       1.00
      C265          C  0.9115620  0.4961148  0.5133032    0.00000       Uiso       1.00
      C266          C  0.9345607  0.5002998  0.5040321    0.00000       Uiso       1.00
      C267          C  0.9451284  0.4925071  0.5088028    0.00000       Uiso       1.00
       H95          H  0.9644560  0.4565405  0.4898313    0.00000       Uiso       1.00
       H96          H  0.9498895  0.4712774  0.4673362    0.00000       Uiso       1.00
      C268          C  0.9988542  0.4711215  0.5161966    0.00000       Uiso       1.00
      C269          C  0.9844360  0.4576117  0.5038834    0.00000       Uiso       1.00
      C270          C  0.9751633  0.4671541  0.4996993    0.00000       Uiso       1.00
      C271          C  0.0038821  0.4941266  0.5242361    0.00000       Uiso       1.00
      C272          C  0.9947258  0.5035204  0.5196799    0.00000       Uiso       1.00
      C273          C  0.9799307  0.4902860  0.5074967    0.00000       Uiso       1.00
       H97          H  0.9384673  0.4748053  0.5287175    0.00000       Uiso       1.00
       H98          H  0.9609849  0.5266156  0.5434637    0.00000       Uiso       1.00
      C274          C  0.0000131  0.4722768  0.4272122    0.00000       Uiso       1.00
      C275          C  0.0135236  0.4867041  0.4404327    0.00000       Uiso       1.00
      C276          C  0.0039792  0.4959753  0.4634317    0.00000       Uiso       1.00
      C277          C  0.9770059  0.4672382  0.4371502    0.00000       Uiso       1.00
      C278          C  0.9676106  0.4763926  0.4602560    0.00000       Uiso       1.00
      C279          C  0.9808457  0.4911994  0.4739988    0.00000       Uiso       1.00
       H99          H  0.9963364  0.5326626  0.4787575    0.00000       Uiso       1.00
      H100          H  0.9445208  0.5101605  0.4933183    0.00000       Uiso       1.00
      C280          C  0.9873244  0.5727936  0.5288784    0.00000       Uiso       1.00
      C281          C  0.9953578  0.5628541  0.5058724    0.00000       Uiso       1.00
      C282          C  0.9908007  0.5397469  0.4964789    0.00000       Uiso       1.00
      C283          C  0.9750179  0.5595733  0.5423895    0.00000       Uiso       1.00
      C284          C  0.9708350  0.5365739  0.5328476    0.00000       Uiso       1.00
      C285          C  0.9786256  0.5260049  0.5097155    0.00000       Uiso       1.00
      H101          H  0.0145909  0.5066978  0.4733953    0.00000       Uiso       1.00
      H102          H  0.9998296  0.5212423  0.5252173    0.00000       Uiso       1.00
      C286          C  0.9637130  0.4527570  0.4237581    0.00000       Uiso       1.00
      C287          C  0.9730839  0.4434066  0.4008953    0.00000       Uiso       1.00
      C288          C  0.0364219  0.4913500  0.4304070    0.00000       Uiso       1.00
      C289          C  0.0457807  0.4817619  0.4076016    0.00000       Uiso       1.00
      C290          C  0.8948897  0.4635758  0.5472452    0.00000       Uiso       1.00
      C291          C  0.8720260  0.4594329  0.5565985    0.00000       Uiso       1.00
      C292          C  0.9015352  0.5043399  0.5086561    0.00000       Uiso       1.00
      C293          C  0.8787268  0.5004761  0.5182441    0.00000       Uiso       1.00
      C294          C  0.9667902  0.5696003  0.5652878    0.00000       Uiso       1.00
      C295          C  0.9706507  0.5924071  0.5746423    0.00000       Uiso       1.00
      C296          C  0.9797978  0.4347132  0.4956490    0.00000       Uiso       1.00
      C297          C  0.9893868  0.4253571  0.4995110    0.00000       Uiso       1.00
      H103          H  0.9688245  0.4239859  0.4860589    0.00000       Uiso       1.00
      H104          H  0.0471495  0.5023300  0.4402418    0.00000       Uiso       1.00
      H105          H  0.9623528  0.4323433  0.3910823    0.00000       Uiso       1.00
      H106          H  0.9113679  0.5139228  0.4976761    0.00000       Uiso       1.00
      H107          H  0.8622088  0.4499520  0.5676625    0.00000       Uiso       1.00
      H108          H  0.9572093  0.5597654  0.5760155    0.00000       Uiso       1.00
      C298          C  0.9051750  0.4545354  0.5531070    0.00000       Uiso       1.00
       F91          F  0.8917274  0.4451861  0.5649691    0.00000       Uiso       1.00
       F92          F  0.9136281  0.4429505  0.5374839    0.00000       Uiso       1.00
       F93          F  0.9177835  0.4687774  0.5612072    0.00000       Uiso       1.00
      C299          C  0.8685192  0.5099429  0.5127690    0.00000       Uiso       1.00
       F94          F  0.8819642  0.5192579  0.5008761    0.00000       Uiso       1.00
       F95          F  0.8556893  0.4959307  0.5048434    0.00000       Uiso       1.00
       F96          F  0.8603481  0.5216483  0.5285345    0.00000       Uiso       1.00
      C300          C  0.9611782  0.6026102  0.5997918    0.00000       Uiso       1.00
       F97          F  0.9518626  0.5891629  0.6075517    0.00000       Uiso       1.00
       F98          F  0.9751877  0.6154404  0.6065392    0.00000       Uiso       1.00
       F99          F  0.9494725  0.6107802  0.6039013    0.00000       Uiso       1.00
      C301          C  0.9839191  0.4002082  0.4900309    0.00000       Uiso       1.00
      F100          F  0.9720311  0.3924491  0.4807115    0.00000       Uiso       1.00
      F101          F  0.9996883  0.3961039  0.4783269    0.00000       Uiso       1.00
      F102          F  0.9759904  0.3934549  0.5040362    0.00000       Uiso       1.00
      C302          C  0.9385254  0.4468950  0.4340435    0.00000       Uiso       1.00
      F103          F  0.9307615  0.4350332  0.4205959    0.00000       Uiso       1.00
      F104          F  0.9320587  0.4387943  0.4466514    0.00000       Uiso       1.00
      F105          F  0.9341106  0.4625182  0.4424971    0.00000       Uiso       1.00
      C303          C  0.0709307  0.4872388  0.3974018    0.00000       Uiso       1.00
      F106          F  0.0786884  0.4991312  0.4108506    0.00000       Uiso       1.00
      F107          F  0.0750422  0.4714738  0.3892325    0.00000       Uiso       1.00
      F108          F  0.0776791  0.4951657  0.3845716    0.00000       Uiso       1.00
      C304          C  0.7576280  0.8838382  0.5873033    0.00000       Uiso       1.00
      C305          C  0.7690555  0.8725566  0.5662106    0.00000       Uiso       1.00
      C306          C  0.7919685  0.8822481  0.5565219    0.00000       Uiso       1.00
      C307          C  0.7690555  0.9049310  0.5985851    0.00000       Uiso       1.00
      C308          C  0.7918946  0.9147129  0.5889195    0.00000       Uiso       1.00
      C309          C  0.8039506  0.9035671  0.5676845    0.00000       Uiso       1.00
      H109          H  0.0110683  0.9380285  0.3288933    0.00000       Uiso       1.00
      H110          H  0.7599826  0.9143897  0.6157799    0.00000       Uiso       1.00
      H111          H  0.7599826  0.8553616  0.5567518    0.00000       Uiso       1.00
      C310          C  0.0584347  0.9322287  0.2865011    0.00000       Uiso       1.00
      C311          C  0.0373419  0.9338449  0.2979284    0.00000       Uiso       1.00
      C312          C  0.0275597  0.9372365  0.3207672    0.00000       Uiso       1.00
      C313          C  0.0697163  0.9338449  0.2979284    0.00000       Uiso       1.00
      C314          C  0.0600247  0.9373776  0.3208412    0.00000       Uiso       1.00
      C315          C  0.0387060  0.9392037  0.3328223    0.00000       Uiso       1.00
      H112          H  0.0042461  0.8730662  0.5399371    0.00000       Uiso       1.00
      H113          H  0.0869113  0.9325083  0.2888556    0.00000       Uiso       1.00
      H114          H  0.0278832  0.9325083  0.2888556    0.00000       Uiso       1.00
      C316          C  0.0584349  0.1846449  0.5389170    0.00000       Uiso       1.00
      C317          C  0.0697165  0.1732174  0.5373006    0.00000       Uiso       1.00
      C318          C  0.0600525  0.1503781  0.5339062    0.00000       Uiso       1.00
      C319          C  0.0373421  0.1732174  0.5373006    0.00000       Uiso       1.00
      C320          C  0.0276547  0.1503040  0.5337641    0.00000       Uiso       1.00
      C321          C  0.0388193  0.1383219  0.5319359    0.00000       Uiso       1.00
      H115          H  0.8000210  0.9312045  0.5980758    0.00000       Uiso       1.00
      H116          H  0.0278834  0.1822903  0.5386373    0.00000       Uiso       1.00
      H117          H  0.0869115  0.1822903  0.5386373    0.00000       Uiso       1.00
      C322          C  0.0100442  0.8838382  0.5873033    0.00000       Uiso       1.00
      C323          C  0.0084279  0.9049311  0.5985851    0.00000       Uiso       1.00
      C324          C  0.0048957  0.9146202  0.5888937    0.00000       Uiso       1.00
      C325          C  0.0084279  0.8725566  0.5662106    0.00000       Uiso       1.00
      C326          C  0.0050374  0.8822227  0.5564285    0.00000       Uiso       1.00
      C327          C  0.0030709  0.9034577  0.5675745    0.00000       Uiso       1.00
      H118          H  0.0692100  0.1422502  0.5331110    0.00000       Uiso       1.00
      C328          C  0.9711356  0.9711373  0.5000034    0.00000       Uiso       1.00
      H119          H  0.0097645  0.8553617  0.5567518    0.00000       Uiso       1.00
      H120          H  0.0097645  0.9143897  0.6157799    0.00000       Uiso       1.00
      C329          C  0.8039136  0.8688097  0.5335625    0.00000       Uiso       1.00
      F109          F  0.8221068  0.8789115  0.5282004    0.00000       Uiso       1.00
      F110          F  0.8020965  0.8529868  0.5342240    0.00000       Uiso       1.00
      F111          F  0.7963799  0.8645828  0.5212669    0.00000       Uiso       1.00
      C330          C  0.0024685  0.9375784  0.6023339    0.00000       Uiso       1.00
      F112          F  0.9997397  0.9429412  0.5922322    0.00000       Uiso       1.00
      F113          F  0.9877990  0.9369140  0.6181551    0.00000       Uiso       1.00
      F114          F  0.0180693  0.9498749  0.6065635    0.00000       Uiso       1.00
      C331          C  0.0734657  0.9398029  0.3327844    0.00000       Uiso       1.00
      F115          F  0.0633652  0.9425320  0.3509777    0.00000       Uiso       1.00
      F116          F  0.0776937  0.9242011  0.3252499    0.00000       Uiso       1.00
      F117          F  0.0892880  0.9544710  0.3309666    0.00000       Uiso       1.00
      C332          C  0.0046975  0.1383641  0.5313351    0.00000       Uiso       1.00
      F118          F  0.9993312  0.1201696  0.5286031    0.00000       Uiso       1.00
      F119          F  0.9924009  0.1458979  0.5469363    0.00000       Uiso       1.00
      F120          F  0.0053653  0.1401862  0.5166676    0.00000       Uiso       1.00
      C333          C  0.8286971  0.9140385  0.5574465    0.00000       Uiso       1.00
      C334          C  0.8389492  0.9096194  0.5343910    0.00000       Uiso       1.00
      C335          C  0.8619478  0.9192245  0.5248528    0.00000       Uiso       1.00
      C336          C  0.8423693  0.9285955  0.5706745    0.00000       Uiso       1.00
      C337          C  0.8653352  0.9384533  0.5613578    0.00000       Uiso       1.00
      C338          C  0.8751871  0.9337343  0.5383714    0.00000       Uiso       1.00
      H121          H  0.8352585  0.9320428  0.5882887    0.00000       Uiso       1.00
      H122          H  0.8290117  0.8988949  0.5237828    0.00000       Uiso       1.00
      C339          C  0.0282344  0.9432415  0.3575671    0.00000       Uiso       1.00
      C340          C  0.0136849  0.9555926  0.3712393    0.00000       Uiso       1.00
      C341          C  0.0038261  0.9593836  0.3942045    0.00000       Uiso       1.00
      C342          C  0.0326437  0.9348479  0.3678178    0.00000       Uiso       1.00
      C343          C  0.0230376  0.9387026  0.3908147    0.00000       Uiso       1.00
      C344          C  0.0085365  0.9509589  0.4040546    0.00000       Uiso       1.00
      H123          H  0.0433597  0.9250185  0.3578842    0.00000       Uiso       1.00
      H124          H  0.0102443  0.9626560  0.3641286    0.00000       Uiso       1.00
      C345          C  0.0285854  0.1135755  0.5278950    0.00000       Uiso       1.00
      C346          C  0.0418166  0.0999055  0.5155514    0.00000       Uiso       1.00
      C347          C  0.0325009  0.0769375  0.5117596    0.00000       Uiso       1.00
      C348          C  0.0055308  0.1033231  0.5362797    0.00000       Uiso       1.00
      C349          C  0.9959945  0.0803260  0.5324235    0.00000       Uiso       1.00
      C350          C  0.0095120  0.0670855  0.5201762    0.00000       Uiso       1.00
      H125          H  0.9949178  0.1132541  0.5461023    0.00000       Uiso       1.00
      H126          H  0.0594338  0.1070240  0.5084962    0.00000       Uiso       1.00
      C351          C  0.9990333  0.9136955  0.5571034    0.00000       Uiso       1.00
      C352          C  0.0074254  0.9367500  0.5615155    0.00000       Uiso       1.00
      C353          C  0.0035683  0.9462883  0.5519125    0.00000       Uiso       1.00
      C354          C  0.9866841  0.9004679  0.5425526    0.00000       Uiso       1.00
      C355          C  0.9828933  0.9097846  0.5326946    0.00000       Uiso       1.00
      C356          C  0.9913135  0.9327702  0.5374090    0.00000       Uiso       1.00
      H127          H  0.9796240  0.8828542  0.5391103    0.00000       Uiso       1.00
      H128          H  0.0172543  0.9473546  0.5722324    0.00000       Uiso       1.00
      C357          C  0.0117142  0.9691927  0.5565901    0.00000       Uiso       1.00
      C358          C  0.0075700  0.9785614  0.5472399    0.00000       Uiso       1.00
      C359          C  0.0277098  0.9305501  0.4008947    0.00000       Uiso       1.00
      C360          C  0.0183570  0.9346913  0.4237570    0.00000       Uiso       1.00
      H129          H  0.0387655  0.9210615  0.3910823    0.00000       Uiso       1.00
      H130          H  0.0212014  0.9799209  0.5676465    0.00000       Uiso       1.00
      C361          C  0.0166157  0.0037487  0.5530918    0.00000       Uiso       1.00
      F121          F  0.0117350  0.0084103  0.5441125    0.00000       Uiso       1.00
      F122          F  0.0094894  0.0117706  0.5716058    0.00000       Uiso       1.00
      F123          F  0.0353186  0.0097098  0.5478890    0.00000       Uiso       1.00
      C362          C  0.0242074  0.9256387  0.4340406    0.00000       Uiso       1.00
      F124          F  0.0152279  0.9305157  0.4525622    0.00000       Uiso       1.00
      F125          F  0.0190035  0.9069361  0.4264975    0.00000       Uiso       1.00
      F126          F  0.0427214  0.9327633  0.4306746    0.00000       Uiso       1.00
      C363          C  0.8983446  0.9434126  0.5288794    0.00000       Uiso       1.00
      C364          C  0.9082837  0.9383765  0.5058749    0.00000       Uiso       1.00
      C365          C  0.9313889  0.9475334  0.4964812    0.00000       Uiso       1.00
      C366          C  0.9115645  0.9578371  0.5423895    0.00000       Uiso       1.00
      C367          C  0.9345632  0.9671084  0.5328471    0.00000       Uiso       1.00
      C368          C  0.9451311  0.9623377  0.5097159    0.00000       Uiso       1.00
      H131          H  0.9644591  0.9813095  0.4733934    0.00000       Uiso       1.00
      H132          H  0.9498926  0.0038053  0.5251920    0.00000       Uiso       1.00
      C369          C  0.9988576  0.9549442  0.4272110    0.00000       Uiso       1.00
      C370          C  0.9844394  0.9672574  0.4404325    0.00000       Uiso       1.00
      C371          C  0.9751664  0.9714415  0.4634318    0.00000       Uiso       1.00
      C372          C  0.0038853  0.9469048  0.4371492    0.00000       Uiso       1.00
      C373          C  0.9947287  0.9514608  0.4602550    0.00000       Uiso       1.00
      C374          C  0.9799336  0.9636440  0.4739988    0.00000       Uiso       1.00
      H133          H  0.9384702  0.9424229  0.4787604    0.00000       Uiso       1.00
      H134          H  0.9609875  0.9276767  0.4933070    0.00000       Uiso       1.00
      C375          C  0.0000162  0.0439298  0.5161928    0.00000       Uiso       1.00
      C376          C  0.0135267  0.0307093  0.5038891    0.00000       Uiso       1.00
      C377          C  0.0039823  0.0077101  0.4997055    0.00000       Uiso       1.00
      C378          C  0.9770091  0.0339916  0.5242227    0.00000       Uiso       1.00
      C379          C  0.9676137  0.0108856  0.5196665    0.00000       Uiso       1.00
      C380          C  0.9808485  0.9971422  0.5074953    0.00000       Uiso       1.00
      H135          H  0.9963388  0.9923835  0.5287092    0.00000       Uiso       1.00
      H136          H  0.9445232  0.9778224  0.5434617    0.00000       Uiso       1.00
      C381          C  0.9873266  0.9422624  0.5277310    0.00000       Uiso       1.00
      C382          C  0.9953600  0.9652684  0.5327643    0.00000       Uiso       1.00
      C383          C  0.9908030  0.9746619  0.5236077    0.00000       Uiso       1.00
      C384          C  0.9750202  0.9287511  0.5133060    0.00000       Uiso       1.00
      C385          C  0.9708375  0.9382929  0.5040314    0.00000       Uiso       1.00
      C386          C  0.9786281  0.9614253  0.5088041    0.00000       Uiso       1.00
      H137          H  0.0145936  0.9977459  0.4898528    0.00000       Uiso       1.00
      H138          H  0.9998323  0.9459235  0.4673357    0.00000       Uiso       1.00
      C387          C  0.9637161  0.0473837  0.5364266    0.00000       Uiso       1.00
      C388          C  0.9730871  0.0702467  0.5405682    0.00000       Uiso       1.00
      C389          C  0.0364250  0.0407352  0.4956626    0.00000       Uiso       1.00
      C390          C  0.0457839  0.0635408  0.4995212    0.00000       Uiso       1.00
      C391          C  0.8948927  0.9238948  0.4925804    0.00000       Uiso       1.00
      C392          C  0.8720290  0.9145413  0.5019477    0.00000       Uiso       1.00
      C393          C  0.9015375  0.9624842  0.5652885    0.00000       Uiso       1.00
      C394          C  0.8787290  0.9528961  0.5746449    0.00000       Uiso       1.00
      C395          C  0.9667925  0.9058526  0.5086622    0.00000       Uiso       1.00
      C396          C  0.9706528  0.8964980  0.5182540    0.00000       Uiso       1.00
      C397          C  0.9798014  0.9754919  0.4304067    0.00000       Uiso       1.00
      C398          C  0.9893905  0.9716298  0.4075997    0.00000       Uiso       1.00
      H139          H  0.9688280  0.9850819  0.4402429    0.00000       Uiso       1.00
      H140          H  0.0471526  0.0309004  0.4860801    0.00000       Uiso       1.00
      H141          H  0.9623560  0.0800597  0.5500490    0.00000       Uiso       1.00
      H142          H  0.9113700  0.9734643  0.5760188    0.00000       Uiso       1.00
      H143          H  0.8622119  0.9034773  0.4912199    0.00000       Uiso       1.00
      H144          H  0.9572117  0.8951248  0.4976804    0.00000       Uiso       1.00
      C399          C  0.9051782  0.9180331  0.4673930    0.00000       Uiso       1.00
      F127          F  0.8917307  0.9061708  0.4596290    0.00000       Uiso       1.00
      F128          F  0.9136314  0.9336563  0.4629782    0.00000       Uiso       1.00
      F129          F  0.9177866  0.9099329  0.4609263    0.00000       Uiso       1.00
      C400          C  0.8685213  0.9583711  0.5997944    0.00000       Uiso       1.00
      F130          F  0.8819662  0.9702641  0.6075574    0.00000       Uiso       1.00
      F131          F  0.8556914  0.9662967  0.6065376    0.00000       Uiso       1.00
      F132          F  0.8603500  0.9426055  0.6039053    0.00000       Uiso       1.00
      C401          C  0.9611803  0.8713484  0.5127799    0.00000       Uiso       1.00
      F133          F  0.9518647  0.8635884  0.5008883    0.00000       Uiso       1.00
      F134          F  0.9751896  0.8646009  0.5048532    0.00000       Uiso       1.00
      F135          F  0.9494744  0.8672388  0.5285460    0.00000       Uiso       1.00
      C402          C  0.9839230  0.9811100  0.3973986    0.00000       Uiso       1.00
      F136          F  0.9720349  0.9904293  0.4108469    0.00000       Uiso       1.00
      F137          F  0.9996923  0.9928141  0.3892292    0.00000       Uiso       1.00
      F138          F  0.9759945  0.9671045  0.3845685    0.00000       Uiso       1.00
      C403          C  0.9385285  0.0370981  0.5454666    0.00000       Uiso       1.00
      F139          F  0.9307646  0.0505457  0.5548162    0.00000       Uiso       1.00
      F140          F  0.9320619  0.0244901  0.5312245    0.00000       Uiso       1.00
      F141          F  0.9341135  0.0286444  0.5570509    0.00000       Uiso       1.00
      C404          C  0.0709339  0.0737408  0.4900482    0.00000       Uiso       1.00
      F142          F  0.0786915  0.0602919  0.4807341    0.00000       Uiso       1.00
      F143          F  0.0750456  0.0819101  0.4783410    0.00000       Uiso       1.00
      F144          F  0.0776822  0.0865711  0.5040570    0.00000       Uiso       1.00
      C405          C  0.5872981  0.8838371  0.7576314    0.00000       Uiso       1.00
      C406          C  0.5985798  0.9049300  0.7690589    0.00000       Uiso       1.00
      C407          C  0.5888883  0.9146187  0.7919717    0.00000       Uiso       1.00
      C408          C  0.5662052  0.8725553  0.7690586    0.00000       Uiso       1.00
      C409          C  0.5564233  0.8822209  0.7918975    0.00000       Uiso       1.00
      C410          C  0.5675692  0.9034560  0.8039536    0.00000       Uiso       1.00
      H145          H  0.5331098  0.1422493  0.0110691    0.00000       Uiso       1.00
      H146          H  0.5567464  0.8553603  0.7599857    0.00000       Uiso       1.00
      H147          H  0.6157749  0.9143888  0.7599862    0.00000       Uiso       1.00
      C411          C  0.5389098  0.1846417  0.0584353    0.00000       Uiso       1.00
      C412          C  0.5372936  0.1732143  0.0373425    0.00000       Uiso       1.00
      C413          C  0.5339019  0.1503754  0.0275604    0.00000       Uiso       1.00
      C414          C  0.5372934  0.1732142  0.0697168    0.00000       Uiso       1.00
      C415          C  0.5337605  0.1503012  0.0600253    0.00000       Uiso       1.00
      C416          C  0.5319344  0.1383201  0.0387066    0.00000       Uiso       1.00
      H148          H  0.5980690  0.9312020  0.0042472    0.00000       Uiso       1.00
      H149          H  0.5386299  0.1822870  0.0869117    0.00000       Uiso       1.00
      H150          H  0.5386303  0.1822873  0.0278839    0.00000       Uiso       1.00
      C417          C  0.2864925  0.9322237  0.0584336    0.00000       Uiso       1.00
      C418          C  0.2979198  0.9338400  0.0697153    0.00000       Uiso       1.00
      C419          C  0.3207591  0.9372343  0.0600514    0.00000       Uiso       1.00
      C420          C  0.2979200  0.9338402  0.0373410    0.00000       Uiso       1.00
      C421          C  0.3208334  0.9373766  0.0276538    0.00000       Uiso       1.00
      C422          C  0.3328154  0.9392048  0.0388184    0.00000       Uiso       1.00
      H151          H  0.5399317  0.8730646  0.8000238    0.00000       Uiso       1.00
      H152          H  0.2888472  0.9325036  0.0278823    0.00000       Uiso       1.00
      H153          H  0.2888469  0.9325032  0.0869101    0.00000       Uiso       1.00
      C423          C  0.5872964  0.8838353  0.0100452    0.00000       Uiso       1.00
      C424          C  0.5662035  0.8725536  0.0084288    0.00000       Uiso       1.00
      C425          C  0.5565146  0.8822452  0.0048966    0.00000       Uiso       1.00
      C426          C  0.5985782  0.9049283  0.0084290    0.00000       Uiso       1.00
      C427          C  0.5889122  0.9147105  0.0050385    0.00000       Uiso       1.00
      C428          C  0.5676773  0.9035645  0.0030719    0.00000       Uiso       1.00
      H154          H  0.3288870  0.9380295  0.0692089    0.00000       Uiso       1.00
      C429          C  0.4999993  0.9711373  0.9711373    0.00000       Uiso       1.00
      H155          H  0.6157731  0.9143870  0.0097657    0.00000       Uiso       1.00
      H156          H  0.5567447  0.8553586  0.0097654    0.00000       Uiso       1.00
      C430          C  0.6023269  0.9375783  0.8039168    0.00000       Uiso       1.00
      F145          F  0.5922250  0.9429404  0.8221098    0.00000       Uiso       1.00
      F146          F  0.6181497  0.9369166  0.8020998    0.00000       Uiso       1.00
      F147          F  0.6065540  0.9498739  0.7963832    0.00000       Uiso       1.00
      C431          C  0.5335564  0.8688050  0.0024693    0.00000       Uiso       1.00
      F148          F  0.5281939  0.8789070  0.9997413    0.00000       Uiso       1.00
      F149          F  0.5342210  0.8529840  0.9878008    0.00000       Uiso       1.00
      F150          F  0.5212598  0.8645753  0.0180700    0.00000       Uiso       1.00
      C432          C  0.5313350  0.1383578  0.0734661    0.00000       Uiso       1.00
      F151          F  0.5286057  0.1201644  0.0633657    0.00000       Uiso       1.00
      F152          F  0.5469368  0.1458922  0.0776942    0.00000       Uiso       1.00
      F153          F  0.5166670  0.1401756  0.0892882    0.00000       Uiso       1.00
      C433          C  0.3327734  0.9398058  0.0046968    0.00000       Uiso       1.00
      F154          F  0.3509680  0.9425380  0.9993315    0.00000       Uiso       1.00
      F155          F  0.3252398  0.9242047  0.9924011    0.00000       Uiso       1.00
      F156          F  0.3309515  0.9544734  0.0053645    0.00000       Uiso       1.00
      C434          C  0.5570979  0.9136941  0.8286999    0.00000       Uiso       1.00
      C435          C  0.5615172  0.9367497  0.8389519    0.00000       Uiso       1.00
      C436          C  0.5519121  0.9462880  0.8619503    0.00000       Uiso       1.00
      C437          C  0.5425407  0.9004660  0.8423719    0.00000       Uiso       1.00
      C438          C  0.5326830  0.9097826  0.8653376    0.00000       Uiso       1.00
      C439          C  0.5374021  0.9327692  0.8751895    0.00000       Uiso       1.00
      H157          H  0.5390933  0.8828516  0.8352612    0.00000       Uiso       1.00
      H158          H  0.5722418  0.9473581  0.8290146    0.00000       Uiso       1.00
      C440          C  0.5278965  0.1135751  0.0282350    0.00000       Uiso       1.00
      C441          C  0.5155452  0.0999029  0.0136856    0.00000       Uiso       1.00
      C442          C  0.5117541  0.0769375  0.0038268    0.00000       Uiso       1.00
      C443          C  0.5362898  0.1033242  0.0326444    0.00000       Uiso       1.00
      C444          C  0.5324349  0.0803271  0.0230383    0.00000       Uiso       1.00
      C445          C  0.5201786  0.0670873  0.0085373    0.00000       Uiso       1.00
      H159          H  0.5461191  0.1132578  0.0433603    0.00000       Uiso       1.00
      H160          H  0.5084820  0.1070137  0.0102450    0.00000       Uiso       1.00
      C446          C  0.3575617  0.9432456  0.0285847    0.00000       Uiso       1.00
      C447          C  0.3712317  0.9555891  0.0418159    0.00000       Uiso       1.00
      C448          C  0.3941996  0.9593809  0.0325004    0.00000       Uiso       1.00
      C449          C  0.3678142  0.9348609  0.0055303    0.00000       Uiso       1.00
      C450          C  0.3908114  0.9387174  0.9959950    0.00000       Uiso       1.00
      C451          C  0.4040517  0.9509643  0.0095117    0.00000       Uiso       1.00
      H161          H  0.3578833  0.9250385  0.9949182    0.00000       Uiso       1.00
      H162          H  0.3641133  0.9626444  0.0594329    0.00000       Uiso       1.00
      C452          C  0.5574400  0.9140362  0.9990352    0.00000       Uiso       1.00
      C453          C  0.5343852  0.9096237  0.0074261    0.00000       Uiso       1.00
      C454          C  0.5248470  0.9192269  0.0035691    0.00000       Uiso       1.00
      C455          C  0.5706676  0.9285870  0.9866861    0.00000       Uiso       1.00
      C456          C  0.5613511  0.9384453  0.9828954    0.00000       Uiso       1.00
      C457          C  0.5383657  0.9337310  0.9913154    0.00000       Uiso       1.00
      H163          H  0.5882814  0.9320294  0.9796262    0.00000       Uiso       1.00
      H164          H  0.5237805  0.8989068  0.0172550    0.00000       Uiso       1.00
      C458          C  0.5019428  0.9145494  0.0117148    0.00000       Uiso       1.00
      C459          C  0.4925743  0.9238998  0.0075705    0.00000       Uiso       1.00
      C460          C  0.5405872  0.0702470  0.0277105    0.00000       Uiso       1.00
      C461          C  0.5364459  0.0473845  0.0183578    0.00000       Uiso       1.00
      H165          H  0.5500758  0.0800593  0.0387662    0.00000       Uiso       1.00
      H166          H  0.4912145  0.9034928  0.0212019    0.00000       Uiso       1.00
      C462          C  0.4673877  0.9180480  0.0166157    0.00000       Uiso       1.00
      F157          F  0.4627262  0.9270274  0.0117350    0.00000       Uiso       1.00
      F158          F  0.4593657  0.8995337  0.0094894    0.00000       Uiso       1.00
      F159          F  0.4614266  0.9232507  0.0353184    0.00000       Uiso       1.00
      C463          C  0.5454981  0.0371007  0.0242081    0.00000       Uiso       1.00
      F160          F  0.5406211  0.0185789  0.0152286    0.00000       Uiso       1.00
      F161          F  0.5642008  0.0446438  0.0190044    0.00000       Uiso       1.00
      F162          F  0.5383736  0.0404666  0.0427221    0.00000       Uiso       1.00
      C464          C  0.5277239  0.9422613  0.8983468    0.00000       Uiso       1.00
      C465          C  0.5327602  0.9652659  0.9082859    0.00000       Uiso       1.00
      C466          C  0.5236033  0.9746597  0.9313909    0.00000       Uiso       1.00
      C467          C  0.5132992  0.9287510  0.9115666    0.00000       Uiso       1.00
      C468          C  0.5040280  0.9382934  0.9345651    0.00000       Uiso       1.00
      C469          C  0.5087989  0.9614248  0.9451330    0.00000       Uiso       1.00
      H167          H  0.4898275  0.9977477  0.9644608    0.00000       Uiso       1.00
      H168          H  0.4673320  0.9459488  0.9498939    0.00000       Uiso       1.00
      C470          C  0.5161934  0.0439310  0.9988592    0.00000       Uiso       1.00
      C471          C  0.5038801  0.0307095  0.9844410    0.00000       Uiso       1.00
      C472          C  0.4996958  0.0077100  0.9751681    0.00000       Uiso       1.00
      C473          C  0.5242323  0.0339923  0.0038860    0.00000       Uiso       1.00
      C474          C  0.5196763  0.0108866  0.9947304    0.00000       Uiso       1.00
      C475          C  0.5074927  0.9971421  0.9799352    0.00000       Uiso       1.00
      H169          H  0.5287139  0.9923806  0.9384723    0.00000       Uiso       1.00
      H170          H  0.5434597  0.9778336  0.9609895    0.00000       Uiso       1.00
      C476          C  0.4272074  0.9549477  0.0000161    0.00000       Uiso       1.00
      C477          C  0.4404278  0.9672513  0.0135265    0.00000       Uiso       1.00
      C478          C  0.4634270  0.9714350  0.0039824    0.00000       Uiso       1.00
      C479          C  0.4371457  0.9469181  0.9770100    0.00000       Uiso       1.00
      C480          C  0.4602517  0.9514742  0.9676147    0.00000       Uiso       1.00
      C481          C  0.4739944  0.9636454  0.9808500    0.00000       Uiso       1.00
      H171          H  0.4787527  0.9424312  0.9963402    0.00000       Uiso       1.00
      H172          H  0.4933139  0.9276788  0.9445249    0.00000       Uiso       1.00
      C482          C  0.5288737  0.9434091  0.9873284    0.00000       Uiso       1.00
      C483          C  0.5058676  0.9383759  0.9953615    0.00000       Uiso       1.00
      C484          C  0.4964743  0.9475327  0.9908046    0.00000       Uiso       1.00
      C485          C  0.5423850  0.9578342  0.9750221    0.00000       Uiso       1.00
      C486          C  0.5328434  0.9671090  0.9708393    0.00000       Uiso       1.00
      C487          C  0.5097111  0.9623364  0.9786298    0.00000       Uiso       1.00
      H173          H  0.4733905  0.9812877  0.0145940    0.00000       Uiso       1.00
      H174          H  0.5252135  0.0038058  0.9998341    0.00000       Uiso       1.00
      C488          C  0.4237536  0.9347142  0.9637171    0.00000       Uiso       1.00
      C489          C  0.4008907  0.9305726  0.9730878    0.00000       Uiso       1.00
      C490          C  0.4304019  0.9754779  0.0364247    0.00000       Uiso       1.00
      C491          C  0.4075964  0.9716193  0.0457834    0.00000       Uiso       1.00
      C492          C  0.5472420  0.9785606  0.8948951    0.00000       Uiso       1.00
      C493          C  0.5565954  0.9691933  0.8720316    0.00000       Uiso       1.00
      C494          C  0.5086520  0.9058518  0.9015396    0.00000       Uiso       1.00
      C495          C  0.5182401  0.8964953  0.8787313    0.00000       Uiso       1.00
      C496          C  0.5652835  0.9624780  0.9667946    0.00000       Uiso       1.00
      C497          C  0.5746378  0.9528861  0.9706550    0.00000       Uiso       1.00
      C498          C  0.4956459  0.0407355  0.9798030    0.00000       Uiso       1.00
      C499          C  0.4995081  0.0635427  0.9893921    0.00000       Uiso       1.00
      H175          H  0.4860558  0.0308993  0.9688296    0.00000       Uiso       1.00
      H176          H  0.4402368  0.9850603  0.0471523    0.00000       Uiso       1.00
      H177          H  0.3910777  0.9210918  0.9623567    0.00000       Uiso       1.00
      H178          H  0.4976718  0.8951215  0.9113720    0.00000       Uiso       1.00
      H179          H  0.5676597  0.9799211  0.8622146    0.00000       Uiso       1.00
      H180          H  0.5760115  0.9734600  0.9572138    0.00000       Uiso       1.00
      C500          C  0.5531043  0.0037489  0.9051806    0.00000       Uiso       1.00
      F163          F  0.5649667  0.0115129  0.8917331    0.00000       Uiso       1.00
      F164          F  0.5374812  0.0081637  0.9136336    0.00000       Uiso       1.00
      F165          F  0.5612044  0.0102155  0.9177890    0.00000       Uiso       1.00
      C501          C  0.5127648  0.8713458  0.8685237    0.00000       Uiso       1.00
      F166          F  0.5008718  0.8635826  0.8819683    0.00000       Uiso       1.00
      F167          F  0.5048393  0.8646026  0.8556938    0.00000       Uiso       1.00
      F168          F  0.5285304  0.8672347  0.8603524    0.00000       Uiso       1.00
      C502          C  0.5997875  0.9583601  0.9611826    0.00000       Uiso       1.00
      F169          F  0.6075476  0.9702518  0.9518671    0.00000       Uiso       1.00
      F170          F  0.6065350  0.9662867  0.9751919    0.00000       Uiso       1.00
      F171          F  0.6038970  0.9425939  0.9494768    0.00000       Uiso       1.00
      C503          C  0.4900281  0.0737439  0.9839246    0.00000       Uiso       1.00
      F172          F  0.4807088  0.0602957  0.9720365    0.00000       Uiso       1.00
      F173          F  0.4783241  0.0819134  0.9996937    0.00000       Uiso       1.00
      F174          F  0.5040337  0.0865742  0.9759961    0.00000       Uiso       1.00
      C504          C  0.4340393  0.9256742  0.9385296    0.00000       Uiso       1.00
      F175          F  0.4205917  0.9163245  0.9307657    0.00000       Uiso       1.00
      F176          F  0.4466474  0.9399164  0.9320632    0.00000       Uiso       1.00
      F177          F  0.4424928  0.9140897  0.9341146    0.00000       Uiso       1.00
      C505          C  0.3973964  0.9810923  0.0709332    0.00000       Uiso       1.00
      F178          F  0.4108452  0.9904064  0.0786909    0.00000       Uiso       1.00
      F179          F  0.3892272  0.9927997  0.0750448    0.00000       Uiso       1.00
      F180          F  0.3845659  0.9670835  0.0776814    0.00000       Uiso       1.00
      C506          C  0.7576253  0.8838353  0.0100452    0.00000       Uiso       1.00
      C507          C  0.7690529  0.9049283  0.0084291    0.00000       Uiso       1.00
      C508          C  0.7919658  0.9146171  0.0048965    0.00000       Uiso       1.00
      C509          C  0.7690527  0.8725536  0.0084289    0.00000       Uiso       1.00
      C510          C  0.7918917  0.8822194  0.0050375    0.00000       Uiso       1.00
      C511          C  0.8039478  0.9034545  0.0030708    0.00000       Uiso       1.00
      H181          H  0.0110653  0.1422490  0.0692087    0.00000       Uiso       1.00
      H182          H  0.7599797  0.8553586  0.0097654    0.00000       Uiso       1.00
      H183          H  0.7599801  0.9143870  0.0097658    0.00000       Uiso       1.00
      C512          C  0.0584317  0.1846418  0.0584353    0.00000       Uiso       1.00
      C513          C  0.0373388  0.1732142  0.0697168    0.00000       Uiso       1.00
      C514          C  0.0275567  0.1503753  0.0600516    0.00000       Uiso       1.00
      C515          C  0.0697135  0.1732144  0.0373425    0.00000       Uiso       1.00
      C516          C  0.0600219  0.1503014  0.0276538    0.00000       Uiso       1.00
      C517          C  0.0387031  0.1383202  0.0388174    0.00000       Uiso       1.00
      H184          H  0.0042449  0.9312036  0.8000239    0.00000       Uiso       1.00
      H185          H  0.0869085  0.1822874  0.0278839    0.00000       Uiso       1.00
      H186          H  0.0278801  0.1822870  0.0869117    0.00000       Uiso       1.00
      C518          C  0.0584298  0.9322238  0.0584336    0.00000       Uiso       1.00
      C519          C  0.0697116  0.9338402  0.0373409    0.00000       Uiso       1.00
      C520          C  0.0600477  0.9372346  0.0275601    0.00000       Uiso       1.00
      C521          C  0.0373370  0.9338400  0.0697152    0.00000       Uiso       1.00
      C522          C  0.0276498  0.9373765  0.0600256    0.00000       Uiso       1.00
      C523          C  0.0388146  0.9392048  0.0387072    0.00000       Uiso       1.00
      H187          H  0.8000180  0.8730631  0.0042464    0.00000       Uiso       1.00
      H188          H  0.0278781  0.9325033  0.0869100    0.00000       Uiso       1.00
      H189          H  0.0869066  0.9325037  0.0278823    0.00000       Uiso       1.00
      C524          C  0.0100431  0.8838372  0.7576315    0.00000       Uiso       1.00
      C525          C  0.0084267  0.8725554  0.7690588    0.00000       Uiso       1.00
      C526          C  0.0048943  0.8822468  0.7919715    0.00000       Uiso       1.00
      C527          C  0.0084269  0.9049301  0.7690589    0.00000       Uiso       1.00
      C528          C  0.0050362  0.9147122  0.7918977    0.00000       Uiso       1.00
      C529          C  0.0030695  0.9035661  0.8039531    0.00000       Uiso       1.00
      H190          H  0.0692054  0.9380299  0.0110699    0.00000       Uiso       1.00
      C530          C  0.9711329  0.9711373  0.9711387    0.00000       Uiso       1.00
      H191          H  0.0097637  0.9143889  0.7599862    0.00000       Uiso       1.00
      H192          H  0.0097633  0.8553604  0.7599858    0.00000       Uiso       1.00
      C531          C  0.8039110  0.9375768  0.0024727    0.00000       Uiso       1.00
      F181          F  0.8221044  0.9429393  0.9997439    0.00000       Uiso       1.00
      F182          F  0.8020944  0.9369156  0.9878057    0.00000       Uiso       1.00
      F183          F  0.7963773  0.9498723  0.0180749    0.00000       Uiso       1.00
      C532          C  0.0024670  0.8688065  0.8039165    0.00000       Uiso       1.00
      F184          F  0.9997379  0.8789082  0.8221095    0.00000       Uiso       1.00
      F185          F  0.9877974  0.8529851  0.8020998    0.00000       Uiso       1.00
      F186          F  0.0180677  0.8645770  0.7963827    0.00000       Uiso       1.00
      C533          C  0.0734630  0.1383583  0.0046950    0.00000       Uiso       1.00
      F187          F  0.0633628  0.1201652  0.9993316    0.00000       Uiso       1.00
      F188          F  0.0776914  0.1458931  0.9924002    0.00000       Uiso       1.00
      F189          F  0.0892852  0.1401762  0.0053587    0.00000       Uiso       1.00
      C534          C  0.0046926  0.9398055  0.0734719    0.00000       Uiso       1.00
      F190          F  0.9993265  0.9425374  0.0633752    0.00000       Uiso       1.00
      F191          F  0.9923959  0.9242040  0.0777004    0.00000       Uiso       1.00
      F192          F  0.0053602  0.9544730  0.0892938    0.00000       Uiso       1.00
      C535          C  0.8286946  0.9136931  0.9990342    0.00000       Uiso       1.00
      C536          C  0.8389463  0.9367484  0.0074184    0.00000       Uiso       1.00
      C537          C  0.8619449  0.9462869  0.0035634    0.00000       Uiso       1.00
      C538          C  0.8423667  0.9004651  0.9866912    0.00000       Uiso       1.00
      C539          C  0.8653324  0.9097819  0.9829000    0.00000       Uiso       1.00
      C540          C  0.8751844  0.9327686  0.9913157    0.00000       Uiso       1.00
      H193          H  0.8352560  0.8828508  0.9796349    0.00000       Uiso       1.00
      H194          H  0.8290088  0.9473566  0.0172396    0.00000       Uiso       1.00
      C541          C  0.0282315  0.1135752  0.0285817    0.00000       Uiso       1.00
      C542          C  0.0136819  0.0999028  0.0418101    0.00000       Uiso       1.00
      C543          C  0.0038232  0.0769374  0.0324945    0.00000       Uiso       1.00
      C544          C  0.0326410  0.1033244  0.0055281    0.00000       Uiso       1.00
      C545          C  0.0230351  0.0803276  0.9959924    0.00000       Uiso       1.00
      C546          C  0.0085338  0.0670873  0.0095092    0.00000       Uiso       1.00
      H195          H  0.0433573  0.1132584  0.9949170    0.00000       Uiso       1.00
      H196          H  0.0102412  0.1070135  0.0594247    0.00000       Uiso       1.00
      C547          C  0.0285809  0.9432457  0.0282357    0.00000       Uiso       1.00
      C548          C  0.0418122  0.9555894  0.0136781    0.00000       Uiso       1.00
      C549          C  0.0324968  0.9593812  0.0038176    0.00000       Uiso       1.00
      C550          C  0.0055264  0.9348608  0.0326528    0.00000       Uiso       1.00
      C551          C  0.9959902  0.9387169  0.0230479    0.00000       Uiso       1.00
      C552          C  0.0095079  0.9509644  0.0085376    0.00000       Uiso       1.00
      H197          H  0.9949132  0.9250380  0.0433737    0.00000       Uiso       1.00
      H198          H  0.0594294  0.9626448  0.0102348    0.00000       Uiso       1.00
      C553          C  0.9990317  0.9140372  0.8286991    0.00000       Uiso       1.00
      C554          C  0.0074236  0.9096252  0.8389500    0.00000       Uiso       1.00
      C555          C  0.0035663  0.9192281  0.8619484    0.00000       Uiso       1.00
      C556          C  0.9866825  0.9285880  0.8423716    0.00000       Uiso       1.00
      C557          C  0.9828917  0.9384461  0.8653371    0.00000       Uiso       1.00
      C558          C  0.9913116  0.9337317  0.8751881    0.00000       Uiso       1.00
      H199          H  0.9796225  0.9320303  0.8352602    0.00000       Uiso       1.00
      H200          H  0.0172525  0.8989083  0.8290088    0.00000       Uiso       1.00
      C559          C  0.0117120  0.9145505  0.8720292    0.00000       Uiso       1.00
      C560          C  0.0075676  0.9239008  0.8948925    0.00000       Uiso       1.00
      C561          C  0.0277075  0.0702477  0.9730875    0.00000       Uiso       1.00
      C562          C  0.0183548  0.0473852  0.9637191    0.00000       Uiso       1.00
      H201          H  0.0387634  0.0800601  0.9623557    0.00000       Uiso       1.00
      H202          H  0.0211993  0.9034942  0.8622138    0.00000       Uiso       1.00
      C563          C  0.0166128  0.9180489  0.9051818    0.00000       Uiso       1.00
      F193          F  0.0117319  0.9270283  0.9237036    0.00000       Uiso       1.00
      F194          F  0.0094865  0.8995348  0.9018158    0.00000       Uiso       1.00
      F195          F  0.0353157  0.9232519  0.8976430    0.00000       Uiso       1.00
      C564          C  0.0242054  0.0371015  0.9385325    0.00000       Uiso       1.00
      F196          F  0.0152259  0.0185797  0.9338672    0.00000       Uiso       1.00
      F197          F  0.0190017  0.0446447  0.9325768    0.00000       Uiso       1.00
      F198          F  0.0427195  0.0404676  0.9305090    0.00000       Uiso       1.00
      C565          C  0.8983419  0.9422608  0.9873286    0.00000       Uiso       1.00
      C566          C  0.9082810  0.9652654  0.9953581    0.00000       Uiso       1.00
      C567          C  0.9313862  0.9746594  0.9908038    0.00000       Uiso       1.00
      C568          C  0.9115618  0.9287506  0.9750232    0.00000       Uiso       1.00
      C569          C  0.9345604  0.9382933  0.9708384    0.00000       Uiso       1.00
      C570          C  0.9451284  0.9614246  0.9786310    0.00000       Uiso       1.00
      H203          H  0.9644558  0.9977471  0.0145972    0.00000       Uiso       1.00
      H204          H  0.9498891  0.9459485  0.9998606    0.00000       Uiso       1.00
      C571          C  0.9988548  0.0439307  0.0000164    0.00000       Uiso       1.00
      C572          C  0.9844365  0.0307090  0.0135261    0.00000       Uiso       1.00
      C573          C  0.9751636  0.0077095  0.0039836    0.00000       Uiso       1.00
      C574          C  0.0038829  0.0339928  0.9770119    0.00000       Uiso       1.00
      C575          C  0.9947264  0.0108868  0.9676180    0.00000       Uiso       1.00
      C576          C  0.9799308  0.9971421  0.9808524    0.00000       Uiso       1.00
      H205          H  0.9384675  0.9923802  0.9963328    0.00000       Uiso       1.00
      H206          H  0.9609852  0.9778338  0.9445229    0.00000       Uiso       1.00
      C577          C  0.0000125  0.9549481  0.9988616    0.00000       Uiso       1.00
      C578          C  0.0135231  0.9672518  0.9844344    0.00000       Uiso       1.00
      C579          C  0.0039789  0.9714355  0.9751632    0.00000       Uiso       1.00
      C580          C  0.9770051  0.9469176  0.0038996    0.00000       Uiso       1.00
      C581          C  0.9676102  0.9514742  0.9947456    0.00000       Uiso       1.00
      C582          C  0.9808455  0.9636455  0.9799389    0.00000       Uiso       1.00
      H207          H  0.9963360  0.9424316  0.9384761    0.00000       Uiso       1.00
      H208          H  0.9445204  0.9276787  0.9609777    0.00000       Uiso       1.00
      C583          C  0.9873244  0.9434097  0.8983452    0.00000       Uiso       1.00
      C584          C  0.9953576  0.9383765  0.9082848    0.00000       Uiso       1.00
      C585          C  0.9908005  0.9475331  0.9313918    0.00000       Uiso       1.00
      C586          C  0.9750180  0.9578347  0.9115654    0.00000       Uiso       1.00
      C587          C  0.9708351  0.9671093  0.9345646    0.00000       Uiso       1.00
      C588          C  0.9786255  0.9623367  0.9451337    0.00000       Uiso       1.00
      H209          H  0.0145907  0.9812883  0.9644408    0.00000       Uiso       1.00
      H210          H  0.9998302  0.0038061  0.9498963    0.00000       Uiso       1.00
      C589          C  0.9637122  0.9347137  0.0183806    0.00000       Uiso       1.00
      C590          C  0.9730828  0.9305720  0.0277311    0.00000       Uiso       1.00
      C591          C  0.0364214  0.9754786  0.9797887    0.00000       Uiso       1.00
      C592          C  0.0457801  0.9716200  0.9893768    0.00000       Uiso       1.00
      C593          C  0.8948897  0.9785596  0.0075615    0.00000       Uiso       1.00
      C594          C  0.8720261  0.9691921  0.0117042    0.00000       Uiso       1.00
      C595          C  0.9015348  0.9058515  0.9667981    0.00000       Uiso       1.00
      C596          C  0.8787264  0.8964948  0.9706617    0.00000       Uiso       1.00
      C597          C  0.9667905  0.9624785  0.9015384    0.00000       Uiso       1.00
      C598          C  0.9706511  0.9528867  0.8787317    0.00000       Uiso       1.00
      C599          C  0.9797983  0.0407349  0.0364245    0.00000       Uiso       1.00
      C600          C  0.9893873  0.0635421  0.0457805    0.00000       Uiso       1.00
      H211          H  0.9688248  0.0308986  0.0471516    0.00000       Uiso       1.00
      H212          H  0.0471492  0.9850612  0.9688088    0.00000       Uiso       1.00
      H213          H  0.9623516  0.9210911  0.0387942    0.00000       Uiso       1.00
      H214          H  0.9113673  0.8951212  0.9572154    0.00000       Uiso       1.00
      H215          H  0.8622090  0.9799199  0.0211850    0.00000       Uiso       1.00
      H216          H  0.9572097  0.9734603  0.9113732    0.00000       Uiso       1.00
      C601          C  0.9051756  0.0037480  0.0166019    0.00000       Uiso       1.00
      F199          F  0.8917280  0.0115119  0.0259511    0.00000       Uiso       1.00
      F200          F  0.9136286  0.0081628  0.0281867    0.00000       Uiso       1.00
      F201          F  0.9177842  0.0102147  0.0023600    0.00000       Uiso       1.00
      C602          C  0.8685187  0.8713452  0.9611948    0.00000       Uiso       1.00
      F202          F  0.8819635  0.8635823  0.9518800    0.00000       Uiso       1.00
      F203          F  0.8556887  0.8646019  0.9752069    0.00000       Uiso       1.00
      F204          F  0.8603476  0.8672342  0.9494895    0.00000       Uiso       1.00
      C603          C  0.9611787  0.9583607  0.8685286    0.00000       Uiso       1.00
      F205          F  0.9518632  0.9702523  0.8819758    0.00000       Uiso       1.00
      F206          F  0.9751881  0.9662875  0.8556986    0.00000       Uiso       1.00
      F207          F  0.9494729  0.9425945  0.8603586    0.00000       Uiso       1.00
      C604          C  0.9839196  0.0737431  0.0709293    0.00000       Uiso       1.00
      F208          F  0.9720315  0.0602948  0.0786883    0.00000       Uiso       1.00
      F209          F  0.9996889  0.0819127  0.0750336    0.00000       Uiso       1.00
      F210          F  0.9759911  0.0865733  0.0776825    0.00000       Uiso       1.00
      C605          C  0.9385244  0.9256734  0.0242424    0.00000       Uiso       1.00
      F211          F  0.9307604  0.9163236  0.0361041    0.00000       Uiso       1.00
      F212          F  0.9320579  0.9399155  0.0323431    0.00000       Uiso       1.00
      F213          F  0.9341096  0.9140890  0.0086193    0.00000       Uiso       1.00
      C606          C  0.0709301  0.9810933  0.9839001    0.00000       Uiso       1.00
      F214          F  0.0786879  0.9904074  0.9720078    0.00000       Uiso       1.00
      F215          F  0.0750416  0.9928005  0.9996650    0.00000       Uiso       1.00
      F216          F  0.0776784  0.9670845  0.9759732    0.00000       Uiso       1.00
        B1          B  0.5985856  0.4585970  0.7325561    0.00000       Uiso       1.00
        B2          B  0.5985864  0.4585978  0.5985905    0.00000       Uiso       1.00
        B3          B  0.7325528  0.4585978  0.5985905    0.00000       Uiso       1.00
      C607          C  0.6234861  0.4571080  0.6619630    0.00000       Uiso       1.00
      C608          C  0.6052101  0.4574936  0.6999363    0.00000       Uiso       1.00
      H217          H  0.5893387  0.4571807  0.6830341    0.00000       Uiso       1.00
        O1          O  0.5882511  0.4581546  0.7199335    0.00000       Uiso       1.00
      C609          C  0.6046598  0.4572617  0.6814906    0.00000       Uiso       1.00
      C610          C  0.6427901  0.4571082  0.6234905    0.00000       Uiso       1.00
      C611          C  0.6234784  0.4574942  0.6052148    0.00000       Uiso       1.00
      H218          H  0.6559393  0.4571812  0.5893434    0.00000       Uiso       1.00
        O2          O  0.6211013  0.4581554  0.5882560    0.00000       Uiso       1.00
      C612          C  0.6422425  0.4572621  0.6046644    0.00000       Uiso       1.00
      C613          C  0.6619589  0.4571081  0.6427942    0.00000       Uiso       1.00
      C614          C  0.6999326  0.4574941  0.6234824    0.00000       Uiso       1.00
      H219          H  0.6830301  0.4571809  0.6559430    0.00000       Uiso       1.00
        O3          O  0.7199298  0.4581552  0.6211052    0.00000       Uiso       1.00
      C615          C  0.6814867  0.4572619  0.6422465    0.00000       Uiso       1.00
      C616          C  0.6234863  0.4571081  0.6427942    0.00000       Uiso       1.00
      C617          C  0.6052106  0.4574941  0.6234824    0.00000       Uiso       1.00
        O4          O  0.5882517  0.4581552  0.6211052    0.00000       Uiso       1.00
      H220          H  0.5893389  0.4571809  0.6559430    0.00000       Uiso       1.00
      C618          C  0.6046600  0.4572619  0.6422465    0.00000       Uiso       1.00
      C619          C  0.6427899  0.4571080  0.6619630    0.00000       Uiso       1.00
      C620          C  0.6234778  0.4574936  0.6999363    0.00000       Uiso       1.00
      H221          H  0.6559387  0.4571807  0.6830341    0.00000       Uiso       1.00
        O5          O  0.6211004  0.4581546  0.7199335    0.00000       Uiso       1.00
      C621          C  0.6422421  0.4572617  0.6814906    0.00000       Uiso       1.00
      C622          C  0.6619591  0.4571082  0.6234905    0.00000       Uiso       1.00
      C623          C  0.6999326  0.4574942  0.6052148    0.00000       Uiso       1.00
      H222          H  0.6830305  0.4571812  0.5893434    0.00000       Uiso       1.00
        O6          O  0.7199300  0.4581554  0.5882560    0.00000       Uiso       1.00
      C624          C  0.6814870  0.4572621  0.6046644    0.00000       Uiso       1.00
        B4          B  0.7325551  0.8725482  0.5985930    0.00000       Uiso       1.00
        B5          B  0.5985880  0.7385811  0.5985922    0.00000       Uiso       1.00
        B6          B  0.5985880  0.8725474  0.7325586    0.00000       Uiso       1.00
      C625          C  0.6619612  0.8283439  0.6234928    0.00000       Uiso       1.00
      C626          C  0.6999349  0.8476560  0.6052172    0.00000       Uiso       1.00
      H223          H  0.6830325  0.8151951  0.5893455    0.00000       Uiso       1.00
        O7          O  0.7199323  0.8500333  0.5882583    0.00000       Uiso       1.00
      C627          C  0.6814891  0.8288918  0.6046667    0.00000       Uiso       1.00
      C628          C  0.6234882  0.8091748  0.6427963    0.00000       Uiso       1.00
      C629          C  0.6052124  0.7712011  0.6234843    0.00000       Uiso       1.00
      H224          H  0.5893408  0.7881033  0.6559450    0.00000       Uiso       1.00
        O8          O  0.5882533  0.7512038  0.6211070    0.00000       Uiso       1.00
      C630          C  0.6046619  0.7896469  0.6422484    0.00000       Uiso       1.00
      C631          C  0.6427922  0.8476476  0.6619654    0.00000       Uiso       1.00
      C632          C  0.6234801  0.8659232  0.6999388    0.00000       Uiso       1.00
      H225          H  0.6559412  0.8817949  0.6830366    0.00000       Uiso       1.00
        O9          O  0.6211029  0.8828822  0.7199360    0.00000       Uiso       1.00
      C633          C  0.6422444  0.8664738  0.6814931    0.00000       Uiso       1.00
      C634          C  0.6427922  0.8091749  0.6234926    0.00000       Uiso       1.00
      C635          C  0.6234802  0.7712013  0.6052167    0.00000       Uiso       1.00
       O10          O  0.6211029  0.7512040  0.5882578    0.00000       Uiso       1.00
      H226          H  0.6559412  0.7881038  0.5893454    0.00000       Uiso       1.00
      C636          C  0.6422444  0.7896472  0.6046664    0.00000       Uiso       1.00
      C637          C  0.6619612  0.8476477  0.6427966    0.00000       Uiso       1.00
      C638          C  0.6999349  0.8659236  0.6234848    0.00000       Uiso       1.00
      H227          H  0.6830325  0.8817950  0.6559456    0.00000       Uiso       1.00
       O11          O  0.7199323  0.8828828  0.6211078    0.00000       Uiso       1.00
      C639          C  0.6814891  0.8664740  0.6422489    0.00000       Uiso       1.00
      C640          C  0.6234882  0.8283436  0.6619652    0.00000       Uiso       1.00
      C641          C  0.6052124  0.8476555  0.6999387    0.00000       Uiso       1.00
      H228          H  0.5893407  0.8151945  0.6830363    0.00000       Uiso       1.00
       O12          O  0.5882533  0.8500326  0.7199358    0.00000       Uiso       1.00
      C642          C  0.6046619  0.8288913  0.6814929    0.00000       Uiso       1.00
      C643          C  0.2287385  0.3767619  0.5429378    0.00000       Uiso       1.00
      C644          C  0.2098697  0.3580306  0.5440664    0.00000       Uiso       1.00
      C645          C  0.2092697  0.3400526  0.5462601    0.00000       Uiso       1.00
      C646          C  0.1906209  0.3210025  0.5462502    0.00000       Uiso       1.00
      C647          C  0.1725833  0.3190042  0.5427959    0.00000       Uiso       1.00
      C648          C  0.1736807  0.3372058  0.5402850    0.00000       Uiso       1.00
      C649          C  0.1913114  0.3572962  0.5424446    0.00000       Uiso       1.00
       O13          O  0.2485241  0.3797675  0.5434109    0.00000       Uiso       1.00
      H229          H  0.2233537  0.3408536  0.5480039    0.00000       Uiso       1.00
      H230          H  0.1907014  0.3078913  0.5487309    0.00000       Uiso       1.00
      H231          H  0.1614216  0.3353169  0.5352255    0.00000       Uiso       1.00
      C650          C  0.0943455  0.3949181  0.5429958    0.00000       Uiso       1.00
      C651          C  0.1130717  0.3959117  0.5441377    0.00000       Uiso       1.00
      C652          C  0.1310568  0.4154794  0.5463207    0.00000       Uiso       1.00
      C653          C  0.1501074  0.4158651  0.5463045    0.00000       Uiso       1.00
      C654          C  0.1521025  0.3963694  0.5428488    0.00000       Uiso       1.00
      C655          C  0.1338880  0.3767613  0.5403594    0.00000       Uiso       1.00
      C656          C  0.1137972  0.3764684  0.5425281    0.00000       Uiso       1.00
       O14          O  0.0913556  0.4121657  0.5434393    0.00000       Uiso       1.00
      H232          H  0.1302677  0.4305051  0.5480501    0.00000       Uiso       1.00
      H233          H  0.1632233  0.4315351  0.5487745    0.00000       Uiso       1.00
      H234          H  0.1357640  0.3613274  0.5353016    0.00000       Uiso       1.00
      C657          C  0.0762236  0.2424110  0.5429749    0.00000       Uiso       1.00
      C658          C  0.0752255  0.2612888  0.5441340    0.00000       Uiso       1.00
      C659          C  0.0556477  0.2618924  0.5463475    0.00000       Uiso       1.00
      C660          C  0.0552478  0.2805485  0.5463588    0.00000       Uiso       1.00
      C661          C  0.0747401  0.2985890  0.5429064    0.00000       Uiso       1.00
      C662          C  0.0943604  0.2974913  0.5403876    0.00000       Uiso       1.00
      C663          C  0.0946689  0.2798483  0.5425188    0.00000       Uiso       1.00
       O15          O  0.0589693  0.2226266  0.5434441    0.00000       Uiso       1.00
      H235          H  0.0406270  0.2477986  0.5480792    0.00000       Uiso       1.00
      H236          H  0.0395728  0.2804674  0.5488448    0.00000       Uiso       1.00
      H237          H  0.1097890  0.3097554  0.5353360    0.00000       Uiso       1.00
      C664          C  0.0954973  0.2415143  0.5401207    0.00000       Uiso       1.00
      C665          C  0.1147844  0.2598645  0.5395978    0.00000       Uiso       1.00
      C666          C  0.1343229  0.2590311  0.5372080    0.00000       Uiso       1.00
      C667          C  0.1532294  0.2778216  0.5375607    0.00000       Uiso       1.00
      C668          C  0.1526767  0.2982472  0.5415846    0.00000       Uiso       1.00
      C669          C  0.1326594  0.2988178  0.5444482    0.00000       Uiso       1.00
      C670          C  0.1141708  0.2796556  0.5418866    0.00000       Uiso       1.00
       O16          O  0.0931878  0.2210748  0.5384933    0.00000       Uiso       1.00
      H238          H  0.1348923  0.2436933  0.5349792    0.00000       Uiso       1.00
      H239          H  0.1680985  0.2761022  0.5348324    0.00000       Uiso       1.00
      H240          H  0.1309797  0.3144639  0.5499767    0.00000       Uiso       1.00
      C671          C  0.0770121  0.3756516  0.5401791    0.00000       Uiso       1.00
      C672          C  0.0765920  0.3563712  0.5396765    0.00000       Uiso       1.00
      C673          C  0.0585907  0.3368424  0.5373340    0.00000       Uiso       1.00
      C674          C  0.0581214  0.3179438  0.5377011    0.00000       Uiso       1.00
      C675          C  0.0750980  0.3184911  0.5416879    0.00000       Uiso       1.00
      C676          C  0.0928393  0.3385005  0.5445075    0.00000       Uiso       1.00
      C677          C  0.0947222  0.3569797  0.5419350    0.00000       Uiso       1.00
       O17          O  0.0605062  0.3779616  0.5385586    0.00000       Uiso       1.00
      H241          H  0.0449010  0.3362714  0.5351209    0.00000       Uiso       1.00
      H242          H  0.0442440  0.3030830  0.5350056    0.00000       Uiso       1.00
      H243          H  0.1046545  0.3401909  0.5500198    0.00000       Uiso       1.00
      C678          C  0.2296194  0.3940934  0.5401191    0.00000       Uiso       1.00
      C679          C  0.2112657  0.3945040  0.5396020    0.00000       Uiso       1.00
      C680          C  0.2120813  0.4125081  0.5372661    0.00000       Uiso       1.00
      C681          C  0.1932859  0.4129820  0.5376364    0.00000       Uiso       1.00
      C682          C  0.1728693  0.3959993  0.5416118    0.00000       Uiso       1.00
      C683          C  0.1723191  0.3782474  0.5444154    0.00000       Uiso       1.00
      C684          C  0.1914886  0.3763681  0.5418481    0.00000       Uiso       1.00
       O18          O  0.2500468  0.4106130  0.5385228    0.00000       Uiso       1.00
      H244          H  0.2274146  0.4261995  0.5350617    0.00000       Uiso       1.00
      H245          H  0.1949997  0.4268689  0.5349554    0.00000       Uiso       1.00
      H246          H  0.1566809  0.3664240  0.5499166    0.00000       Uiso       1.00
        B7          B  0.2619277  0.4013248  0.5406019    0.00000       Uiso       1.00
        B8          B  0.0698043  0.4012052  0.5406185    0.00000       Uiso       1.00
        B9          B  0.0699337  0.2092052  0.5405968    0.00000       Uiso       1.00
      C685          C  0.5429356  0.3949167  0.2287442    0.00000       Uiso       1.00
      C686          C  0.5440645  0.3959080  0.2098755    0.00000       Uiso       1.00
      C687          C  0.5462584  0.4154800  0.2092758    0.00000       Uiso       1.00
      C688          C  0.5462488  0.4158716  0.1906273    0.00000       Uiso       1.00
      C689          C  0.5427944  0.3963779  0.1725896    0.00000       Uiso       1.00
      C690          C  0.5402833  0.3767626  0.1736867    0.00000       Uiso       1.00
      C691          C  0.5424427  0.3764623  0.1913173    0.00000       Uiso       1.00
       O19          O  0.5434088  0.4121697  0.2485297    0.00000       Uiso       1.00
      H247          H  0.5480022  0.4305067  0.2233598    0.00000       Uiso       1.00
      H248          H  0.5487297  0.4315442  0.1907079    0.00000       Uiso       1.00
      H249          H  0.5352238  0.3613329  0.1614276    0.00000       Uiso       1.00
      C692          C  0.5429935  0.2424253  0.0943508    0.00000       Uiso       1.00
      C693          C  0.5441354  0.2612998  0.1130771    0.00000       Uiso       1.00
      C694          C  0.5463182  0.2619001  0.1310619    0.00000       Uiso       1.00
      C695          C  0.5463020  0.2805486  0.1501126    0.00000       Uiso       1.00
      C696          C  0.5428464  0.2985840  0.1521079    0.00000       Uiso       1.00
      C697          C  0.5403574  0.2974884  0.1338935    0.00000       Uiso       1.00
      C698          C  0.5425259  0.2798592  0.1138028    0.00000       Uiso       1.00
       O20          O  0.5434368  0.2226311  0.0913608    0.00000       Uiso       1.00
      H250          H  0.5480474  0.2478144  0.1302727    0.00000       Uiso       1.00
      H251          H  0.5487718  0.2804645  0.1632283    0.00000       Uiso       1.00
      H252          H  0.5352995  0.3097405  0.1357697    0.00000       Uiso       1.00
      C699          C  0.5429745  0.3767915  0.0762308    0.00000       Uiso       1.00
      C700          C  0.5441332  0.3580743  0.0752324    0.00000       Uiso       1.00
      C701          C  0.5463468  0.3401066  0.0556546    0.00000       Uiso       1.00
      C702          C  0.5463579  0.3210617  0.0552546    0.00000       Uiso       1.00
      C703          C  0.5429053  0.3190608  0.0747466    0.00000       Uiso       1.00
      C704          C  0.5403864  0.3372598  0.0943668    0.00000       Uiso       1.00
      C705          C  0.5425178  0.3573428  0.0946756    0.00000       Uiso       1.00
       O21          O  0.5434439  0.3797909  0.0589766    0.00000       Uiso       1.00
      H253          H  0.5480787  0.3409115  0.0406342    0.00000       Uiso       1.00
      H254          H  0.5488439  0.3079537  0.0395795    0.00000       Uiso       1.00
      H255          H  0.5353346  0.3353726  0.1097952    0.00000       Uiso       1.00
      C706          C  0.5401201  0.3941076  0.0955045    0.00000       Uiso       1.00
      C707          C  0.5395970  0.3945214  0.1147913    0.00000       Uiso       1.00
      C708          C  0.5372073  0.4125035  0.1343299    0.00000       Uiso       1.00
      C709          C  0.5375597  0.4129719  0.1532361    0.00000       Uiso       1.00
      C710          C  0.5415834  0.3960173  0.1526832    0.00000       Uiso       1.00
      C711          C  0.5444471  0.3782931  0.1326659    0.00000       Uiso       1.00
      C712          C  0.5418856  0.3764052  0.1141775    0.00000       Uiso       1.00
       O22          O  0.5384931  0.4106105  0.0931952    0.00000       Uiso       1.00
      H256          H  0.5349786  0.4261820  0.1348993    0.00000       Uiso       1.00
      H257          H  0.5348314  0.4268321  0.1681052    0.00000       Uiso       1.00
      H258          H  0.5499754  0.3664956  0.1309861    0.00000       Uiso       1.00
      C713          C  0.5401770  0.2415419  0.0770176    0.00000       Uiso       1.00
      C714          C  0.5396746  0.2598998  0.0765977    0.00000       Uiso       1.00
      C715          C  0.5373323  0.2590851  0.0585967    0.00000       Uiso       1.00
      C716          C  0.5376996  0.2778817  0.0581276    0.00000       Uiso       1.00
      C717          C  0.5416865  0.2982978  0.0751042    0.00000       Uiso       1.00
      C718          C  0.5445059  0.2988491  0.0928454    0.00000       Uiso       1.00
      C719          C  0.5419332  0.2796801  0.0947279    0.00000       Uiso       1.00
       O23          O  0.5385565  0.2211055  0.0605117    0.00000       Uiso       1.00
      H259          H  0.5351192  0.2437532  0.0449069    0.00000       Uiso       1.00
      H260          H  0.5350043  0.2761697  0.0442502    0.00000       Uiso       1.00
      H261          H  0.5500183  0.3144862  0.1046605    0.00000       Uiso       1.00
      C720          C  0.5401167  0.3756472  0.2296248    0.00000       Uiso       1.00
      C721          C  0.5395997  0.3563657  0.2112710    0.00000       Uiso       1.00
      C722          C  0.5372635  0.3368411  0.2120864    0.00000       Uiso       1.00
      C723          C  0.5376338  0.3179422  0.1932910    0.00000       Uiso       1.00
      C724          C  0.5416094  0.3184838  0.1728746    0.00000       Uiso       1.00
      C725          C  0.5444133  0.3384894  0.1723247    0.00000       Uiso       1.00
      C726          C  0.5418459  0.3569709  0.1914942    0.00000       Uiso       1.00
       O24          O  0.5385202  0.3779585  0.2500520    0.00000       Uiso       1.00
      H262          H  0.5350590  0.3362786  0.2274195    0.00000       Uiso       1.00
      H263          H  0.5349526  0.3030879  0.1950046    0.00000       Uiso       1.00
      H264          H  0.5499147  0.3401760  0.1566868    0.00000       Uiso       1.00
       B10          B  0.5405995  0.4012068  0.2619331    0.00000       Uiso       1.00
       B11          B  0.5406162  0.2092196  0.0698095    0.00000       Uiso       1.00
       B12          B  0.5405967  0.4013295  0.0699412    0.00000       Uiso       1.00
       B13          B  0.5985861  0.8725455  0.0125384    0.00000       Uiso       1.00
       B14          B  0.5985853  0.7385783  0.0125376    0.00000       Uiso       1.00
       B15          B  0.7325525  0.8725455  0.0125384    0.00000       Uiso       1.00
      C727          C  0.6234859  0.8283412  0.0140276    0.00000       Uiso       1.00
      C728          C  0.6052103  0.8476533  0.0136419    0.00000       Uiso       1.00
      H265          H  0.5893386  0.8151922  0.0139547    0.00000       Uiso       1.00
       O25          O  0.5882514  0.8500305  0.0129808    0.00000       Uiso       1.00
      C729          C  0.6046597  0.8288890  0.0138738    0.00000       Uiso       1.00
      C730          C  0.6427896  0.8091723  0.0140275    0.00000       Uiso       1.00
      C731          C  0.6234775  0.7711985  0.0136414    0.00000       Uiso       1.00
      H266          H  0.6559384  0.7881010  0.0139545    0.00000       Uiso       1.00
       O26          O  0.6211002  0.7512012  0.0129802    0.00000       Uiso       1.00
      C732          C  0.6422417  0.7896444  0.0138736    0.00000       Uiso       1.00
      C733          C  0.6619588  0.8476452  0.0140277    0.00000       Uiso       1.00
      C734          C  0.6999323  0.8659211  0.0136420    0.00000       Uiso       1.00
      H267          H  0.6830302  0.8817927  0.0139551    0.00000       Uiso       1.00
       O27          O  0.7199298  0.8828801  0.0129810    0.00000       Uiso       1.00
      C735          C  0.6814866  0.8664715  0.0138740    0.00000       Uiso       1.00
      C736          C  0.6234859  0.8091723  0.0140275    0.00000       Uiso       1.00
      C737          C  0.6052099  0.7711985  0.0136414    0.00000       Uiso       1.00
       O28          O  0.5882508  0.7512012  0.0129802    0.00000       Uiso       1.00
      H268          H  0.5893384  0.7881009  0.0139545    0.00000       Uiso       1.00
      C738          C  0.6046595  0.7896444  0.0138736    0.00000       Uiso       1.00
      C739          C  0.6427898  0.8476452  0.0140277    0.00000       Uiso       1.00
      C740          C  0.6234781  0.8659210  0.0136420    0.00000       Uiso       1.00
      H269          H  0.6559390  0.8817927  0.0139551    0.00000       Uiso       1.00
       O29          O  0.6211010  0.8828801  0.0129810    0.00000       Uiso       1.00
      C741          C  0.6422422  0.8664715  0.0138740    0.00000       Uiso       1.00
      C742          C  0.6619586  0.8283412  0.0140276    0.00000       Uiso       1.00
      C743          C  0.6999322  0.8476533  0.0136419    0.00000       Uiso       1.00
      H270          H  0.6830298  0.8151922  0.0139547    0.00000       Uiso       1.00
       O30          O  0.7199296  0.8500305  0.0129808    0.00000       Uiso       1.00
      C744          C  0.6814864  0.8288890  0.0138738    0.00000       Uiso       1.00
      C745          C  0.2287348  0.3949112  0.0943710    0.00000       Uiso       1.00
      C746          C  0.2098660  0.3959022  0.1131020    0.00000       Uiso       1.00
      C747          C  0.2092662  0.4154741  0.1310800    0.00000       Uiso       1.00
      C748          C  0.1906174  0.4158655  0.1501299    0.00000       Uiso       1.00
      C749          C  0.1725796  0.3963717  0.1521280    0.00000       Uiso       1.00
      C750          C  0.1736769  0.3767565  0.1339265    0.00000       Uiso       1.00
      C751          C  0.1913076  0.3764564  0.1138363    0.00000       Uiso       1.00
       O31          O  0.2485205  0.4121643  0.0913654    0.00000       Uiso       1.00
      H271          H  0.2233502  0.4305009  0.1302790    0.00000       Uiso       1.00
      H272          H  0.1906979  0.4315380  0.1632410    0.00000       Uiso       1.00
      H273          H  0.1614176  0.3613267  0.1358153    0.00000       Uiso       1.00
      C752          C  0.0943409  0.2424190  0.0762140    0.00000       Uiso       1.00
      C753          C  0.1130673  0.2612937  0.0752205    0.00000       Uiso       1.00
      C754          C  0.1310523  0.2618942  0.0556531    0.00000       Uiso       1.00
      C755          C  0.1501031  0.2805429  0.0552674    0.00000       Uiso       1.00
      C756          C  0.1520983  0.2985781  0.0747631    0.00000       Uiso       1.00
      C757          C  0.1338837  0.2974822  0.0943709    0.00000       Uiso       1.00
      C758          C  0.1137929  0.2798529  0.0946637    0.00000       Uiso       1.00
       O32          O  0.0913510  0.2226250  0.0589665    0.00000       Uiso       1.00
      H274          H  0.1302632  0.2478086  0.0406274    0.00000       Uiso       1.00
      H275          H  0.1632190  0.2804588  0.0395977    0.00000       Uiso       1.00
      H276          H  0.1357598  0.3097343  0.1098048    0.00000       Uiso       1.00
      C759          C  0.0762198  0.3767842  0.2287202    0.00000       Uiso       1.00
      C760          C  0.0752216  0.3580672  0.2098425    0.00000       Uiso       1.00
      C761          C  0.0556437  0.3400992  0.2092388    0.00000       Uiso       1.00
      C762          C  0.0552437  0.3210545  0.1905828    0.00000       Uiso       1.00
      C763          C  0.0747360  0.3190538  0.1725425    0.00000       Uiso       1.00
      C764          C  0.0943564  0.3372530  0.1736403    0.00000       Uiso       1.00
      C765          C  0.0946650  0.3573359  0.1912832    0.00000       Uiso       1.00
       O33          O  0.0589655  0.3797834  0.2485044    0.00000       Uiso       1.00
      H277          H  0.0406231  0.3409040  0.2233324    0.00000       Uiso       1.00
      H278          H  0.0395686  0.3079464  0.1906638    0.00000       Uiso       1.00
      H279          H  0.1097849  0.3353659  0.1613763    0.00000       Uiso       1.00
      C766          C  0.0954936  0.3941004  0.2296170    0.00000       Uiso       1.00
      C767          C  0.1147807  0.3945144  0.2112670    0.00000       Uiso       1.00
      C768          C  0.1343193  0.4124967  0.2121005    0.00000       Uiso       1.00
      C769          C  0.1532258  0.4129653  0.1933103    0.00000       Uiso       1.00
      C770          C  0.1526730  0.3960109  0.1728848    0.00000       Uiso       1.00
      C771          C  0.1326556  0.3782865  0.1723141    0.00000       Uiso       1.00
      C772          C  0.1141670  0.3763984  0.1914760    0.00000       Uiso       1.00
       O34          O  0.0931842  0.4106032  0.2500564    0.00000       Uiso       1.00
      H280          H  0.1348887  0.4261751  0.2274383    0.00000       Uiso       1.00
      H281          H  0.1680949  0.4268256  0.1950298    0.00000       Uiso       1.00
      H282          H  0.1309759  0.3664891  0.1566680    0.00000       Uiso       1.00
      C773          C  0.0770075  0.2415354  0.0954803    0.00000       Uiso       1.00
      C774          C  0.0765875  0.2598932  0.1147606    0.00000       Uiso       1.00
      C775          C  0.0585862  0.2590783  0.1342892    0.00000       Uiso       1.00
      C776          C  0.0581170  0.2778748  0.1531877    0.00000       Uiso       1.00
      C777          C  0.0750937  0.2982909  0.1526404    0.00000       Uiso       1.00
      C778          C  0.0928351  0.2988426  0.1326313    0.00000       Uiso       1.00
      C779          C  0.0947178  0.2796736  0.1141522    0.00000       Uiso       1.00
       O35          O  0.0605015  0.2210989  0.0931702    0.00000       Uiso       1.00
      H283          H  0.0448964  0.2437463  0.1348601    0.00000       Uiso       1.00
      H284          H  0.0442395  0.2761626  0.1680483    0.00000       Uiso       1.00
      H285          H  0.1046503  0.3144797  0.1309410    0.00000       Uiso       1.00
      C780          C  0.2296156  0.3756417  0.0770395    0.00000       Uiso       1.00
      C781          C  0.2112617  0.3563601  0.0766288    0.00000       Uiso       1.00
      C782          C  0.2120773  0.3368357  0.0586248    0.00000       Uiso       1.00
      C783          C  0.1932817  0.3179366  0.0581508    0.00000       Uiso       1.00
      C784          C  0.1728651  0.3184780  0.0751333    0.00000       Uiso       1.00
      C785          C  0.1723151  0.3384835  0.0928851    0.00000       Uiso       1.00
      C786          C  0.1914847  0.3569652  0.0947646    0.00000       Uiso       1.00
       O36          O  0.2500430  0.3779533  0.0605201    0.00000       Uiso       1.00
      H286          H  0.2274105  0.3362733  0.0449336    0.00000       Uiso       1.00
      H287          H  0.1949955  0.3030824  0.0442640    0.00000       Uiso       1.00
      H288          H  0.1566770  0.3401700  0.1047083    0.00000       Uiso       1.00
       B16          B  0.2619241  0.4012016  0.0698084    0.00000       Uiso       1.00
       B17          B  0.0697995  0.2092133  0.0699268    0.00000       Uiso       1.00
       B18          B  0.0699301  0.4013220  0.2619258    0.00000       Uiso       1.00
       B19          B  0.0125365  0.8725475  0.7325586    0.00000       Uiso       1.00
       B20          B  0.0125365  0.7385812  0.5985922    0.00000       Uiso       1.00
       B21          B  0.0125373  0.8725483  0.5985930    0.00000       Uiso       1.00
      C787          C  0.0140261  0.8283437  0.6619652    0.00000       Uiso       1.00
      C788          C  0.0136402  0.8476555  0.6999387    0.00000       Uiso       1.00
      H289          H  0.0139531  0.8151946  0.6830363    0.00000       Uiso       1.00
       O37          O  0.0129790  0.8500326  0.7199358    0.00000       Uiso       1.00
      C789          C  0.0138722  0.8288913  0.6814929    0.00000       Uiso       1.00
      C790          C  0.0140263  0.8091750  0.6234926    0.00000       Uiso       1.00
      C791          C  0.0136403  0.7712013  0.6052167    0.00000       Uiso       1.00
      H290          H  0.0139535  0.7881038  0.5893454    0.00000       Uiso       1.00
       O38          O  0.0129792  0.7512040  0.5882577    0.00000       Uiso       1.00
      C792          C  0.0138725  0.7896472  0.6046664    0.00000       Uiso       1.00
      C793          C  0.0140264  0.8476477  0.6427965    0.00000       Uiso       1.00
      C794          C  0.0136407  0.8659237  0.6234848    0.00000       Uiso       1.00
      H291          H  0.0139536  0.8817951  0.6559456    0.00000       Uiso       1.00
       O39          O  0.0129798  0.8828828  0.6211077    0.00000       Uiso       1.00
      C795          C  0.0138727  0.8664740  0.6422489    0.00000       Uiso       1.00
      C796          C  0.0140261  0.8091748  0.6427963    0.00000       Uiso       1.00
      C797          C  0.0136402  0.7712012  0.6234843    0.00000       Uiso       1.00
       O40          O  0.0129790  0.7512039  0.6211070    0.00000       Uiso       1.00
      H292          H  0.0139531  0.7881034  0.6559450    0.00000       Uiso       1.00
      C798          C  0.0138723  0.7896470  0.6422484    0.00000       Uiso       1.00
      C799          C  0.0140263  0.8476477  0.6619654    0.00000       Uiso       1.00
      C800          C  0.0136403  0.8659232  0.6999387    0.00000       Uiso       1.00
      H293          H  0.0139535  0.8817950  0.6830366    0.00000       Uiso       1.00
       O41          O  0.0129792  0.8828822  0.7199360    0.00000       Uiso       1.00
      C801          C  0.0138725  0.8664739  0.6814930    0.00000       Uiso       1.00
      C802          C  0.0140264  0.8283440  0.6234928    0.00000       Uiso       1.00
      C803          C  0.0136407  0.8476561  0.6052172    0.00000       Uiso       1.00
      H294          H  0.0139536  0.8151951  0.5893455    0.00000       Uiso       1.00
       O42          O  0.0129798  0.8500334  0.5882583    0.00000       Uiso       1.00
      C804          C  0.0138727  0.8288918  0.6046667    0.00000       Uiso       1.00
      C805          C  0.0943757  0.9282034  0.2287473    0.00000       Uiso       1.00
      C806          C  0.1131069  0.9270747  0.2098787    0.00000       Uiso       1.00
      C807          C  0.1310848  0.9248809  0.2092789    0.00000       Uiso       1.00
      C808          C  0.1501350  0.9248908  0.1906303    0.00000       Uiso       1.00
      C809          C  0.1521333  0.9283453  0.1725927    0.00000       Uiso       1.00
      C810          C  0.1339318  0.9308562  0.1736900    0.00000       Uiso       1.00
      C811          C  0.1138414  0.9286967  0.1913206    0.00000       Uiso       1.00
       O43          O  0.0913699  0.9277302  0.2485328    0.00000       Uiso       1.00
      H295          H  0.1302837  0.9231371  0.2233627    0.00000       Uiso       1.00
      H296          H  0.1632460  0.9224100  0.1907108    0.00000       Uiso       1.00
      H297          H  0.1358209  0.9359158  0.1614310    0.00000       Uiso       1.00
      C812          C  0.0762203  0.9281462  0.0943549    0.00000       Uiso       1.00
      C813          C  0.0752266  0.9270042  0.1130811    0.00000       Uiso       1.00
      C814          C  0.0556590  0.9248212  0.1310659    0.00000       Uiso       1.00
      C815          C  0.0552731  0.9248374  0.1501165    0.00000       Uiso       1.00
      C816          C  0.0747687  0.9282930  0.1521116    0.00000       Uiso       1.00
      C817          C  0.0943768  0.9307823  0.1338973    0.00000       Uiso       1.00
      C818          C  0.0946698  0.9286137  0.1138067    0.00000       Uiso       1.00
       O44          O  0.0589729  0.9277029  0.0913650    0.00000       Uiso       1.00
      H298          H  0.0406333  0.9230919  0.1302767    0.00000       Uiso       1.00
      H299          H  0.0396031  0.9223673  0.1632322    0.00000       Uiso       1.00
      H300          H  0.1098107  0.9358402  0.1357735    0.00000       Uiso       1.00
      C819          C  0.2287267  0.9281663  0.0762341    0.00000       Uiso       1.00
      C820          C  0.2098489  0.9270074  0.0752358    0.00000       Uiso       1.00
      C821          C  0.2092455  0.9247940  0.0556581    0.00000       Uiso       1.00
      C822          C  0.1905895  0.9247828  0.0552582    0.00000       Uiso       1.00
      C823          C  0.1725490  0.9282352  0.0747503    0.00000       Uiso       1.00
      C824          C  0.1736466  0.9307539  0.0943704    0.00000       Uiso       1.00
      C825          C  0.1912895  0.9286226  0.0946790    0.00000       Uiso       1.00
       O45          O  0.2485110  0.9276971  0.0589799    0.00000       Uiso       1.00
      H301          H  0.2233392  0.9230623  0.0406376    0.00000       Uiso       1.00
      H302          H  0.1906706  0.9222968  0.0395832    0.00000       Uiso       1.00
      H303          H  0.1613825  0.9358056  0.1097988    0.00000       Uiso       1.00
      C826          C  0.2296233  0.9310206  0.0955077    0.00000       Uiso       1.00
      C827          C  0.2112731  0.9315434  0.1147945    0.00000       Uiso       1.00
      C828          C  0.2121063  0.9339330  0.1343330    0.00000       Uiso       1.00
      C829          C  0.1933159  0.9335804  0.1532392    0.00000       Uiso       1.00
      C830          C  0.1728904  0.9295566  0.1526864    0.00000       Uiso       1.00
      C831          C  0.1723199  0.9266930  0.1326692    0.00000       Uiso       1.00
      C832          C  0.1914821  0.9292547  0.1141808    0.00000       Uiso       1.00
       O46          O  0.2500627  0.9326478  0.0931983    0.00000       Uiso       1.00
      H304          H  0.2274442  0.9361619  0.1349024    0.00000       Uiso       1.00
      H305          H  0.1950352  0.9363086  0.1681082    0.00000       Uiso       1.00
      H306          H  0.1566737  0.9211646  0.1309894    0.00000       Uiso       1.00
      C833          C  0.0954868  0.9309630  0.0770217    0.00000       Uiso       1.00
      C834          C  0.1147672  0.9314654  0.0766017    0.00000       Uiso       1.00
      C835          C  0.1342960  0.9338080  0.0586007    0.00000       Uiso       1.00
      C836          C  0.1531945  0.9334407  0.0581315    0.00000       Uiso       1.00
      C837          C  0.1526469  0.9294538  0.0751080    0.00000       Uiso       1.00
      C838          C  0.1326376  0.9266342  0.0928491    0.00000       Uiso       1.00
      C839          C  0.1141585  0.9292068  0.0947318    0.00000       Uiso       1.00
       O47          O  0.0931770  0.9325836  0.0605160    0.00000       Uiso       1.00
      H307          H  0.1348671  0.9360212  0.0449110    0.00000       Uiso       1.00
      H308          H  0.1680553  0.9361362  0.0442542    0.00000       Uiso       1.00
      H309          H  0.1309471  0.9211218  0.1046642    0.00000       Uiso       1.00
      C840          C  0.0770443  0.9310222  0.2296282    0.00000       Uiso       1.00
      C841          C  0.0766338  0.9315394  0.2112745    0.00000       Uiso       1.00
      C842          C  0.0586298  0.9338754  0.2120900    0.00000       Uiso       1.00
      C843          C  0.0581561  0.9335052  0.1932947    0.00000       Uiso       1.00
      C844          C  0.0751387  0.9295298  0.1728783    0.00000       Uiso       1.00
      C845          C  0.0928904  0.9267260  0.1723282    0.00000       Uiso       1.00
      C846          C  0.0947697  0.9292933  0.1914977    0.00000       Uiso       1.00
       O48          O  0.0605246  0.9326184  0.2500553    0.00000       Uiso       1.00
      H310          H  0.0449385  0.9360798  0.2274231    0.00000       Uiso       1.00
      H311          H  0.0442693  0.9361863  0.1950084    0.00000       Uiso       1.00
      H312          H  0.1047138  0.9212248  0.1566902    0.00000       Uiso       1.00
       B22          B  0.0698127  0.9305392  0.2619362    0.00000       Uiso       1.00
       B23          B  0.0699334  0.9305237  0.0698138    0.00000       Uiso       1.00
       B24          B  0.2619323  0.9305444  0.0699444    0.00000       Uiso       1.00
