data_83
_audit_creation_date              0000-00-00
_audit_creation_method            'LanYouShi'
_symmetry_space_group_name_H-M    'P1'
_cell_length_a                    55.6654015
_cell_length_b                    78.7228012
_cell_length_c                    78.7228012
_cell_angle_alpha                 90.0000000
_cell_angle_beta                  90.0007019
_cell_angle_gamma                 90.0007019
loop_
_atom_site_label
_atom_site_type_symbol
_atom_site_fract_x
_atom_site_fract_y
_atom_site_fract_z
_atom_site_U_iso_or_equiv
_atom_site_adp_type
_atom_site_occupancy
        C1          C  0.6193164  0.6421962  0.5228756    0.00000       Uiso       1.00
        C2          C  0.6284543  0.6268237  0.5289726    0.00000       Uiso       1.00
        C3          C  0.6159520  0.6114125  0.5260612    0.00000       Uiso       1.00
        C4          C  0.5978468  0.6421272  0.5136687    0.00000       Uiso       1.00
        C5          C  0.5853926  0.6267619  0.5106478    0.00000       Uiso       1.00
        C6          C  0.5940707  0.6110249  0.5168464    0.00000       Uiso       1.00
        H1          H  0.6240190  0.4002402  0.4692937    0.00000       Uiso       1.00
        H2          H  0.5901681  0.6545441  0.5085655    0.00000       Uiso       1.00
        H3          H  0.6459743  0.6266415  0.5364692    0.00000       Uiso       1.00
        C7          C  0.6193168  0.3578104  0.4771282    0.00000       Uiso       1.00
        C8          C  0.6284546  0.3731831  0.4710313    0.00000       Uiso       1.00
        C9          C  0.6161104  0.3886032  0.4739968    0.00000       Uiso       1.00
       C10          C  0.5978472  0.3578791  0.4863348    0.00000       Uiso       1.00
       C11          C  0.5853474  0.3732914  0.4892446    0.00000       Uiso       1.00
       C12          C  0.5941753  0.3890326  0.4831042    0.00000       Uiso       1.00
        H4          H  0.4309408  0.5032257  0.6272459    0.00000       Uiso       1.00
        H5          H  0.5901685  0.3454620  0.4914378    0.00000       Uiso       1.00
        H6          H  0.6459747  0.3733656  0.4635352    0.00000       Uiso       1.00
       C13          C  0.3806783  0.4771276  0.3578070    0.00000       Uiso       1.00
       C14          C  0.3715404  0.4710305  0.3731795    0.00000       Uiso       1.00
       C15          C  0.3838860  0.4739943  0.3885994    0.00000       Uiso       1.00
       C16          C  0.4021479  0.4863345  0.3578760    0.00000       Uiso       1.00
       C17          C  0.4146497  0.4892422  0.3732879    0.00000       Uiso       1.00
       C18          C  0.4058228  0.4831003  0.3890293    0.00000       Uiso       1.00
        H7          H  0.5690533  0.6272485  0.5032259    0.00000       Uiso       1.00
        H8          H  0.4098266  0.4914376  0.3454591    0.00000       Uiso       1.00
        H9          H  0.3540204  0.4635340  0.3733617    0.00000       Uiso       1.00
       C19          C  0.3806779  0.5228749  0.6421925    0.00000       Uiso       1.00
       C20          C  0.3715401  0.5289718  0.6268198    0.00000       Uiso       1.00
       C21          C  0.3840422  0.5260604  0.6114088    0.00000       Uiso       1.00
       C22          C  0.4021475  0.5136684  0.6421239    0.00000       Uiso       1.00
       C23          C  0.4146014  0.5106471  0.6267587    0.00000       Uiso       1.00
       C24          C  0.4059230  0.5168454  0.6110219    0.00000       Uiso       1.00
       H10          H  0.3759800  0.4692895  0.4002366    0.00000       Uiso       1.00
       C25          C  0.4999994  0.5000007  0.4999999    0.00000       Uiso       1.00
       H11          H  0.4098262  0.5085654  0.6545410    0.00000       Uiso       1.00
       H12          H  0.3540200  0.5364680  0.6266373    0.00000       Uiso       1.00
       C26          C  0.6263653  0.5949129  0.5335597    0.00000       Uiso       1.00
        F1          F  0.6142347  0.5837780  0.5300745    0.00000       Uiso       1.00
        F2          F  0.6274575  0.5960845  0.5479727    0.00000       Uiso       1.00
        F3          F  0.6451123  0.5926621  0.5281826    0.00000       Uiso       1.00
       C27          C  0.3736303  0.5335609  0.5949096    0.00000       Uiso       1.00
        F4          F  0.3857602  0.5300756  0.5837746    0.00000       Uiso       1.00
        F5          F  0.3725408  0.5479740  0.5960824    0.00000       Uiso       1.00
        F6          F  0.3548824  0.5281855  0.5926581    0.00000       Uiso       1.00
       C28          C  0.5613487  0.3725831  0.4989507    0.00000       Uiso       1.00
        F7          F  0.5536974  0.3859578  0.5001960    0.00000       Uiso       1.00
        F8          F  0.5644745  0.3670229  0.5121380    0.00000       Uiso       1.00
        F9          F  0.5481088  0.3642444  0.4917032    0.00000       Uiso       1.00
       C29          C  0.4386503  0.4989462  0.3725760    0.00000       Uiso       1.00
       F10          F  0.4463059  0.5001913  0.3859496    0.00000       Uiso       1.00
       F11          F  0.4355254  0.5121335  0.3670158    0.00000       Uiso       1.00
       F12          F  0.4518861  0.4916972  0.3642357    0.00000       Uiso       1.00
       C30          C  0.5803543  0.5944873  0.5138047    0.00000       Uiso       1.00
       C31          C  0.5924591  0.5787426  0.5119305    0.00000       Uiso       1.00
       C32          C  0.5797337  0.5633621  0.5092123    0.00000       Uiso       1.00
       C33          C  0.5549224  0.5942770  0.5127579    0.00000       Uiso       1.00
       C34          C  0.5420185  0.5790167  0.5098902    0.00000       Uiso       1.00
       C35          C  0.5544362  0.5634938  0.5081429    0.00000       Uiso       1.00
       H13          H  0.5449920  0.6059647  0.5144638    0.00000       Uiso       1.00
       H14          H  0.6118833  0.5784257  0.5123576    0.00000       Uiso       1.00
       C36          C  0.5806809  0.4056796  0.4860338    0.00000       Uiso       1.00
       C37          C  0.5815103  0.4190202  0.4739421    0.00000       Uiso       1.00
       C38          C  0.5691190  0.4345363  0.4765534    0.00000       Uiso       1.00
       C39          C  0.5668208  0.4084408  0.5008991    0.00000       Uiso       1.00
       C40          C  0.5541607  0.4238524  0.5035846    0.00000       Uiso       1.00
       C41          C  0.5553530  0.4369658  0.4914010    0.00000       Uiso       1.00
       H15          H  0.5660811  0.3986795  0.5105617    0.00000       Uiso       1.00
       H16          H  0.5914858  0.4172855  0.4622766    0.00000       Uiso       1.00
       C42          C  0.4193183  0.4860279  0.4056772    0.00000       Uiso       1.00
       C43          C  0.4184791  0.4739384  0.4190207    0.00000       Uiso       1.00
       C44          C  0.4308709  0.4765497  0.4345392    0.00000       Uiso       1.00
       C45          C  0.4331872  0.5008896  0.4084357    0.00000       Uiso       1.00
       C46          C  0.4458481  0.5035746  0.4238471    0.00000       Uiso       1.00
       C47          C  0.4446476  0.4913955  0.4369651    0.00000       Uiso       1.00
       H17          H  0.4339340  0.5105495  0.3986733    0.00000       Uiso       1.00
       H18          H  0.4084938  0.4622755  0.4172834    0.00000       Uiso       1.00
       C48          C  0.4196396  0.5138041  0.5944849    0.00000       Uiso       1.00
       C49          C  0.4075350  0.5119229  0.5787410    0.00000       Uiso       1.00
       C50          C  0.4202606  0.5092068  0.5633606    0.00000       Uiso       1.00
       C51          C  0.4450713  0.5127637  0.5942748    0.00000       Uiso       1.00
       C52          C  0.4579754  0.5098957  0.5790148    0.00000       Uiso       1.00
       C53          C  0.4455580  0.5081438  0.5634926    0.00000       Uiso       1.00
       H19          H  0.4550004  0.5144739  0.6059627    0.00000       Uiso       1.00
       H20          H  0.3881106  0.5123424  0.5784272    0.00000       Uiso       1.00
       C54          C  0.4081372  0.5075672  0.5477682    0.00000       Uiso       1.00
       C55          C  0.4208954  0.5051065  0.5325320    0.00000       Uiso       1.00
       C56          C  0.5402135  0.4264086  0.5182654    0.00000       Uiso       1.00
       C57          C  0.5274412  0.4416368  0.5207363    0.00000       Uiso       1.00
       H21          H  0.5390380  0.4165440  0.5278239    0.00000       Uiso       1.00
       H22          H  0.3887149  0.5083088  0.5473365    0.00000       Uiso       1.00
       C58          C  0.4068115  0.5035967  0.5157620    0.00000       Uiso       1.00
       F13          F  0.4199151  0.5016594  0.5048032    0.00000       Uiso       1.00
       F14          F  0.3960451  0.5157170  0.5135610    0.00000       Uiso       1.00
       F15          F  0.3940484  0.4922962  0.5165078    0.00000       Uiso       1.00
       C59          C  0.5121875  0.4437323  0.5369212    0.00000       Uiso       1.00
       F16          F  0.5031661  0.4567322  0.5368210    0.00000       Uiso       1.00
       F17          F  0.5242386  0.4426266  0.5485775    0.00000       Uiso       1.00
       F18          F  0.4978663  0.4333892  0.5373461    0.00000       Uiso       1.00
       C60          C  0.5415168  0.5480599  0.5054526    0.00000       Uiso       1.00
       C61          C  0.5538693  0.5324874  0.5040378    0.00000       Uiso       1.00
       C62          C  0.5409065  0.5171247  0.5018620    0.00000       Uiso       1.00
       C63          C  0.5162458  0.5481970  0.5044507    0.00000       Uiso       1.00
       C64          C  0.5035242  0.5328143  0.5020462    0.00000       Uiso       1.00
       C65          C  0.5154019  0.5168846  0.5006179    0.00000       Uiso       1.00
       H23          H  0.5314695  0.4905782  0.4746484    0.00000       Uiso       1.00
       H24          H  0.4962696  0.5219494  0.4709805    0.00000       Uiso       1.00
       C66          C  0.5426106  0.4524871  0.4940042    0.00000       Uiso       1.00
       C67          C  0.5437419  0.4655525  0.4817974    0.00000       Uiso       1.00
       C68          C  0.5307645  0.4808078  0.4843302    0.00000       Uiso       1.00
       C69          C  0.5284618  0.4548084  0.5086790    0.00000       Uiso       1.00
       C70          C  0.5152732  0.4700587  0.5109657    0.00000       Uiso       1.00
       C71          C  0.5162671  0.4835494  0.4989505    0.00000       Uiso       1.00
       H25          H  0.5509652  0.5054006  0.5016645    0.00000       Uiso       1.00
       H26          H  0.5159241  0.5016325  0.5331258    0.00000       Uiso       1.00
       C72          C  0.4573909  0.4940014  0.4524854    0.00000       Uiso       1.00
       C73          C  0.4562499  0.4817989  0.4655547    0.00000       Uiso       1.00
       C74          C  0.4692284  0.4843330  0.4808093    0.00000       Uiso       1.00
       C75          C  0.4715500  0.5086728  0.4548015    0.00000       Uiso       1.00
       C76          C  0.4847399  0.5109605  0.4700514    0.00000       Uiso       1.00
       C77          C  0.4837339  0.4989507  0.4835471    0.00000       Uiso       1.00
       H27          H  0.4490328  0.5016559  0.5053961    0.00000       Uiso       1.00
       H28          H  0.4840727  0.5331236  0.5016426    0.00000       Uiso       1.00
       C78          C  0.4584773  0.5054538  0.5480590    0.00000       Uiso       1.00
       C79          C  0.4461241  0.5040355  0.5324852    0.00000       Uiso       1.00
       C80          C  0.4590893  0.5018613  0.5171221    0.00000       Uiso       1.00
       C81          C  0.4837496  0.5044525  0.5481969    0.00000       Uiso       1.00
       C82          C  0.4964727  0.5020456  0.5328146    0.00000       Uiso       1.00
       C83          C  0.4845953  0.5006189  0.5168836    0.00000       Uiso       1.00
       H29          H  0.4685109  0.4746593  0.4905878    0.00000       Uiso       1.00
       H30          H  0.5037537  0.4709932  0.5219604    0.00000       Uiso       1.00
       C84          C  0.4725796  0.5207254  0.4416256    0.00000       Uiso       1.00
       C85          C  0.4598048  0.5182533  0.4263979    0.00000       Uiso       1.00
       C86          C  0.4423791  0.4670857  0.4630114    0.00000       Uiso       1.00
       C87          C  0.4298833  0.4644856  0.4476985    0.00000       Uiso       1.00
       C88          C  0.5790983  0.5325332  0.5051148    0.00000       Uiso       1.00
       C89          C  0.5918578  0.5477692  0.5075780    0.00000       Uiso       1.00
       C90          C  0.5040762  0.5637613  0.5061418    0.00000       Uiso       1.00
       C91          C  0.5167937  0.5789660  0.5088479    0.00000       Uiso       1.00
       C92          C  0.4959183  0.5061468  0.5637612    0.00000       Uiso       1.00
       C93          C  0.4832003  0.5088559  0.5789640    0.00000       Uiso       1.00
       C94          C  0.5576056  0.4630058  0.4670809    0.00000       Uiso       1.00
       C95          C  0.5701023  0.4476920  0.4644840    0.00000       Uiso       1.00
       H31          H  0.5586807  0.4728427  0.4574767    0.00000       Uiso       1.00
       H32          H  0.4412965  0.4574849  0.4728508    0.00000       Uiso       1.00
       H33          H  0.4609869  0.5278077  0.4165295    0.00000       Uiso       1.00
       H34          H  0.4846357  0.5641854  0.5054811    0.00000       Uiso       1.00
       H35          H  0.6112813  0.5473389  0.5083266    0.00000       Uiso       1.00
       H36          H  0.5153587  0.5054847  0.5641835    0.00000       Uiso       1.00
       C96          C  0.5931870  0.5157649  0.5036125    0.00000       Uiso       1.00
       F19          F  0.6132408  0.5184518  0.5048006    0.00000       Uiso       1.00
       F20          F  0.5893693  0.5096821  0.4907510    0.00000       Uiso       1.00
       F21          F  0.5873805  0.5067479  0.5141737    0.00000       Uiso       1.00
       C97          C  0.5026673  0.5956795  0.5107346    0.00000       Uiso       1.00
       F22          F  0.4826171  0.5929934  0.5095157    0.00000       Uiso       1.00
       F23          F  0.5084218  0.6049320  0.5003644    0.00000       Uiso       1.00
       F24          F  0.5065058  0.6014855  0.5237204    0.00000       Uiso       1.00
       C98          C  0.4973308  0.5107462  0.5956756    0.00000       Uiso       1.00
       F25          F  0.5173805  0.5095287  0.5929875    0.00000       Uiso       1.00
       F26          F  0.4915802  0.5003768  0.6049302    0.00000       Uiso       1.00
       F27          F  0.4934920  0.5237324  0.6014802    0.00000       Uiso       1.00
       C99          C  0.5849158  0.4454545  0.4481147    0.00000       Uiso       1.00
       F28          F  0.5834407  0.4574312  0.4400416    0.00000       Uiso       1.00
       F29          F  0.5777310  0.4341384  0.4406419    0.00000       Uiso       1.00
       F30          F  0.6045415  0.4431376  0.4515432    0.00000       Uiso       1.00
      C100          C  0.4878457  0.5369053  0.4437168    0.00000       Uiso       1.00
       F31          F  0.4863465  0.5449950  0.4317528    0.00000       Uiso       1.00
       F32          F  0.5074240  0.5332299  0.4458477    0.00000       Uiso       1.00
       F33          F  0.4810674  0.5444682  0.4550980    0.00000       Uiso       1.00
      C101          C  0.4150622  0.4481188  0.4454657    0.00000       Uiso       1.00
       F34          F  0.4165336  0.4400488  0.4574448    0.00000       Uiso       1.00
       F35          F  0.4222434  0.4406411  0.4341519    0.00000       Uiso       1.00
       F36          F  0.3954381  0.4515507  0.4431476    0.00000       Uiso       1.00
      C102          C  0.8349308  0.7500055  0.6306849    0.00000       Uiso       1.00
      C103          C  0.8442065  0.7653093  0.6368508    0.00000       Uiso       1.00
      C104          C  0.8625289  0.7653082  0.6493520    0.00000       Uiso       1.00
      C105          C  0.8442065  0.7347019  0.6368508    0.00000       Uiso       1.00
      C106          C  0.8625925  0.7346472  0.6492503    0.00000       Uiso       1.00
      C107          C  0.8721309  0.7499540  0.6558791    0.00000       Uiso       1.00
       H37          H  0.1304679  0.8465465  0.7225235    0.00000       Uiso       1.00
       H38          H  0.8368925  0.7221024  0.6319301    0.00000       Uiso       1.00
       H39          H  0.8368924  0.7779086  0.6319301    0.00000       Uiso       1.00
      C108          C  0.1650631  0.8693278  0.7500070    0.00000       Uiso       1.00
      C109          C  0.1557875  0.8631619  0.7347032    0.00000       Uiso       1.00
      C110          C  0.1374017  0.8507624  0.7346479    0.00000       Uiso       1.00
      C111          C  0.1557874  0.8631619  0.7653107    0.00000       Uiso       1.00
      C112          C  0.1374651  0.8506605  0.7653092    0.00000       Uiso       1.00
      C113          C  0.1278645  0.8441337  0.7499543    0.00000       Uiso       1.00
       H40          H  0.8695273  0.7774885  0.8465434    0.00000       Uiso       1.00
       H41          H  0.1631014  0.8680826  0.7779101    0.00000       Uiso       1.00
       H42          H  0.1631014  0.8680826  0.7221039    0.00000       Uiso       1.00
      C114          C  0.1650631  0.6306894  0.7500070    0.00000       Uiso       1.00
      C115          C  0.1557874  0.6368552  0.7653107    0.00000       Uiso       1.00
      C116          C  0.1374039  0.6492559  0.7653658    0.00000       Uiso       1.00
      C117          C  0.1557875  0.6368552  0.7347032    0.00000       Uiso       1.00
      C118          C  0.1374681  0.6493580  0.7347043    0.00000       Uiso       1.00
      C119          C  0.1278685  0.6558862  0.7500593    0.00000       Uiso       1.00
       H43          H  0.8695274  0.7225233  0.6534657    0.00000       Uiso       1.00
       H44          H  0.1631014  0.6319346  0.7221039    0.00000       Uiso       1.00
       H45          H  0.1631014  0.6319346  0.7779102    0.00000       Uiso       1.00
      C120          C  0.8349307  0.7500055  0.8693231    0.00000       Uiso       1.00
      C121          C  0.8442063  0.7347019  0.8631575    0.00000       Uiso       1.00
      C122          C  0.8625290  0.7347032  0.8506567    0.00000       Uiso       1.00
      C123          C  0.8442062  0.7653093  0.8631575    0.00000       Uiso       1.00
      C124          C  0.8625930  0.7653644  0.8507587    0.00000       Uiso       1.00
      C125          C  0.8721312  0.7500578  0.8441304    0.00000       Uiso       1.00
       H46          H  0.1304713  0.6534739  0.7774897    0.00000       Uiso       1.00
      C126          C -0.0000010  0.7500084  0.7500049    0.00000       Uiso       1.00
       H47          H  0.8368923  0.7779086  0.8680780    0.00000       Uiso       1.00
       H48          H  0.8368924  0.7221024  0.8680780    0.00000       Uiso       1.00
      C127          C  0.8715302  0.7825140  0.6561444    0.00000       Uiso       1.00
       F37          F  0.8861501  0.7802737  0.6660348    0.00000       Uiso       1.00
       F38          F  0.8559455  0.7896807  0.6622189    0.00000       Uiso       1.00
       F39          F  0.8791584  0.7903244  0.6452079    0.00000       Uiso       1.00
      C128          C  0.8715275  0.7174975  0.8438628    0.00000       Uiso       1.00
       F40          F  0.8861479  0.7197378  0.8339732    0.00000       Uiso       1.00
       F41          F  0.8559417  0.7103326  0.8377873    0.00000       Uiso       1.00
       F42          F  0.8791541  0.7096856  0.8547989    0.00000       Uiso       1.00
      C129          C  0.1284668  0.8438683  0.7825156    0.00000       Uiso       1.00
       F43          F  0.1138467  0.8339779  0.7802765    0.00000       Uiso       1.00
       F44          F  0.1208397  0.8548049  0.7903264    0.00000       Uiso       1.00
       F45          F  0.1440528  0.8377941  0.7896814    0.00000       Uiso       1.00
      C130          C  0.1284764  0.6561502  0.7174960    0.00000       Uiso       1.00
       F46          F  0.1138579  0.6660421  0.7197322    0.00000       Uiso       1.00
       F47          F  0.1208493  0.6452140  0.7096845    0.00000       Uiso       1.00
       F48          F  0.1440660  0.6622226  0.7103325    0.00000       Uiso       1.00
      C131          C  0.8917100  0.7498440  0.6694855    0.00000       Uiso       1.00
      C132          C  0.9093291  0.7628317  0.6703684    0.00000       Uiso       1.00
      C133          C  0.9274276  0.7628004  0.6830626    0.00000       Uiso       1.00
      C134          C  0.8929666  0.7367098  0.6817831    0.00000       Uiso       1.00
      C135          C  0.9110943  0.7364543  0.6944316    0.00000       Uiso       1.00
      C136          C  0.9283647  0.7495511  0.6951107    0.00000       Uiso       1.00
       H49          H  0.8795728  0.7267537  0.6817573    0.00000       Uiso       1.00
       H50          H  0.9092192  0.7729159  0.6610283    0.00000       Uiso       1.00
      C137          C  0.1082876  0.8305275  0.7498427    0.00000       Uiso       1.00
      C138          C  0.1070388  0.8182260  0.7367117    0.00000       Uiso       1.00
      C139          C  0.0889111  0.8055779  0.7364548    0.00000       Uiso       1.00
      C140          C  0.0906609  0.8296494  0.7628246    0.00000       Uiso       1.00
      C141          C  0.0725636  0.8169561  0.7627913    0.00000       Uiso       1.00
      C142          C  0.0716338  0.8049039  0.7495468    0.00000       Uiso       1.00
       H51          H  0.0907595  0.8389915  0.7729064    0.00000       Uiso       1.00
       H52          H  0.1204392  0.8182486  0.7267588    0.00000       Uiso       1.00
      C143          C  0.1082931  0.6694939  0.7501715    0.00000       Uiso       1.00
      C144          C  0.1070390  0.6817907  0.7633076    0.00000       Uiso       1.00
      C145          C  0.0889095  0.6944401  0.7635651    0.00000       Uiso       1.00
      C146          C  0.0906731  0.6703765  0.7371852    0.00000       Uiso       1.00
      C147          C  0.0725771  0.6830700  0.7372178    0.00000       Uiso       1.00
      C148          C  0.0716380  0.6951183  0.7504666    0.00000       Uiso       1.00
       H53          H  0.0907757  0.6610388  0.7271007    0.00000       Uiso       1.00
       H54          H  0.1204391  0.6817610  0.7732632    0.00000       Uiso       1.00
      C149          C  0.8917098  0.7501684  0.8305244    0.00000       Uiso       1.00
      C150          C  0.9093348  0.7371849  0.8296456    0.00000       Uiso       1.00
      C151          C  0.9274314  0.7372157  0.8169509    0.00000       Uiso       1.00
      C152          C  0.8929608  0.7632994  0.8182237    0.00000       Uiso       1.00
      C153          C  0.9110891  0.7635556  0.8055760    0.00000       Uiso       1.00
      C154          C  0.9283629  0.7504619  0.8048996    0.00000       Uiso       1.00
       H55          H  0.8795629  0.7732527  0.8182480    0.00000       Uiso       1.00
       H56          H  0.9092287  0.7271060  0.8389911    0.00000       Uiso       1.00
      C155          C  0.9446632  0.7241777  0.8160363    0.00000       Uiso       1.00
      C156          C  0.9623605  0.7241693  0.8032696    0.00000       Uiso       1.00
      C157          C  0.0553263  0.8160448  0.7758272    0.00000       Uiso       1.00
      C158          C  0.0376270  0.8032798  0.7758345    0.00000       Uiso       1.00
       H57          H  0.0556323  0.8251686  0.7861264    0.00000       Uiso       1.00
       H58          H  0.9443530  0.7138800  0.8251608    0.00000       Uiso       1.00
      C159          C  0.9806399  0.7094973  0.8026817    0.00000       Uiso       1.00
       F49          F  0.9935364  0.7115386  0.7916192    0.00000       Uiso       1.00
       F50          F  0.9707205  0.6969534  0.8009041    0.00000       Uiso       1.00
       F51          F  0.9911944  0.7091390  0.8150865    0.00000       Uiso       1.00
      C160          C  0.0193462  0.8026975  0.7905058    0.00000       Uiso       1.00
       F52          F  0.0064463  0.7916365  0.7884663    0.00000       Uiso       1.00
       F53          F  0.0087958  0.8151039  0.7908612    0.00000       Uiso       1.00
       F54          F  0.0292641  0.8009209  0.8030505    0.00000       Uiso       1.00
      C161          C  0.9464887  0.7494634  0.7079424    0.00000       Uiso       1.00
      C162          C  0.9634763  0.7627186  0.7088451    0.00000       Uiso       1.00
      C163          C  0.9810144  0.7628309  0.7219202    0.00000       Uiso       1.00
      C164          C  0.9473531  0.7362584  0.7200084    0.00000       Uiso       1.00
      C165          C  0.9651400  0.7363868  0.7328584    0.00000       Uiso       1.00
      C166          C  0.9824983  0.7495766  0.7341704    0.00000       Uiso       1.00
       H59          H  0.0347736  0.7577792  0.7263056    0.00000       Uiso       1.00
       H60          H  0.0070697  0.7226595  0.7263857    0.00000       Uiso       1.00
      C167          C  0.0535091  0.7920734  0.7494587    0.00000       Uiso       1.00
      C168          C  0.0526504  0.7800029  0.7362570    0.00000       Uiso       1.00
      C169          C  0.0348621  0.7671528  0.7363842    0.00000       Uiso       1.00
      C170          C  0.0365127  0.7911756  0.7627098    0.00000       Uiso       1.00
      C171          C  0.0189754  0.7780994  0.7628220    0.00000       Uiso       1.00
      C172          C  0.0175000  0.7658434  0.7495722    0.00000       Uiso       1.00
       H61          H  0.9929363  0.7736236  0.7226542    0.00000       Uiso       1.00
       H62          H  0.9652424  0.7737176  0.7577892    0.00000       Uiso       1.00
      C173          C  0.0535121  0.7079470  0.7505519    0.00000       Uiso       1.00
      C174          C  0.0526453  0.7200124  0.7637584    0.00000       Uiso       1.00
      C175          C  0.0348567  0.7328618  0.7636293    0.00000       Uiso       1.00
      C176          C  0.0365247  0.7088488  0.7372947    0.00000       Uiso       1.00
      C177          C  0.0189874  0.7219247  0.7371807    0.00000       Uiso       1.00
      C178          C  0.0175016  0.7341744  0.7504364    0.00000       Uiso       1.00
       H63          H  0.9929476  0.7263955  0.7773585    0.00000       Uiso       1.00
       H64          H  0.9652339  0.7263047  0.7422278    0.00000       Uiso       1.00
      C179          C  0.9464868  0.7505500  0.7920684    0.00000       Uiso       1.00
      C180          C  0.9634786  0.7372957  0.7911674    0.00000       Uiso       1.00
      C181          C  0.9810163  0.7371840  0.7780905    0.00000       Uiso       1.00
      C182          C  0.9473506  0.7637557  0.7800018    0.00000       Uiso       1.00
      C183          C  0.9651401  0.7636297  0.7671527    0.00000       Uiso       1.00
      C184          C  0.9824977  0.7504389  0.7658394    0.00000       Uiso       1.00
       H65          H  0.0347519  0.7422291  0.7737141    0.00000       Uiso       1.00
       H66          H  0.0070461  0.7773696  0.7736117    0.00000       Uiso       1.00
      C185          C  0.0376482  0.6967493  0.7241656    0.00000       Uiso       1.00
      C186          C  0.0553477  0.6839843  0.7241753    0.00000       Uiso       1.00
      C187          C  0.0699015  0.7191621  0.7767789    0.00000       Uiso       1.00
      C188          C  0.0878143  0.7065580  0.7766706    0.00000       Uiso       1.00
      C189          C  0.9623539  0.7758487  0.6967462    0.00000       Uiso       1.00
      C190          C  0.9446549  0.7758419  0.6839799    0.00000       Uiso       1.00
      C191          C  0.9300975  0.7232369  0.7191564    0.00000       Uiso       1.00
      C192          C  0.9121869  0.7233462  0.7065482    0.00000       Uiso       1.00
      C193          C  0.9300923  0.7767749  0.7808523    0.00000       Uiso       1.00
      C194          C  0.9121801  0.7766625  0.7934579    0.00000       Uiso       1.00
      C195          C  0.0699140  0.7808500  0.7232404    0.00000       Uiso       1.00
      C196          C  0.0878249  0.7934570  0.7233506    0.00000       Uiso       1.00
       H67          H  0.0696813  0.7716671  0.7129822    0.00000       Uiso       1.00
       H68          H  0.0696629  0.7283409  0.7870403    0.00000       Uiso       1.00
       H69          H  0.0556618  0.6748639  0.7138729    0.00000       Uiso       1.00
       H70          H  0.9303337  0.7129742  0.7283342    0.00000       Uiso       1.00
       H71          H  0.9443370  0.7861431  0.6748576    0.00000       Uiso       1.00
       H72          H  0.9303324  0.7870373  0.7716743    0.00000       Uiso       1.00
      C197          C  0.9806247  0.7905262  0.6973350    0.00000       Uiso       1.00
       F55          F  0.9767501  0.7998037  0.6865587    0.00000       Uiso       1.00
       F56          F  0.9995690  0.7852282  0.6958547    0.00000       Uiso       1.00
       F57          F  0.9790803  0.7974120  0.7100274    0.00000       Uiso       1.00
      C198          C  0.8935863  0.7088694  0.7061978    0.00000       Uiso       1.00
       F58          F  0.8974910  0.6995779  0.7169566    0.00000       Uiso       1.00
       F59          F  0.8947042  0.7019354  0.6935093    0.00000       Uiso       1.00
       F60          F  0.8747947  0.7143784  0.7078683    0.00000       Uiso       1.00
      C199          C  0.8935784  0.7911383  0.7938032    0.00000       Uiso       1.00
       F61          F  0.8974845  0.8004279  0.7830431    0.00000       Uiso       1.00
       F62          F  0.8946931  0.7980750  0.8064905    0.00000       Uiso       1.00
       F63          F  0.8747874  0.7856280  0.7921317    0.00000       Uiso       1.00
      C200          C  0.1064319  0.7937980  0.7088782    0.00000       Uiso       1.00
       F64          F  0.1025284  0.7830355  0.6995907    0.00000       Uiso       1.00
       F65          F  0.1252207  0.7921274  0.7143924    0.00000       Uiso       1.00
       F66          F  0.1053207  0.8064834  0.7019380    0.00000       Uiso       1.00
      C201          C  0.0193774  0.6973379  0.7094880    0.00000       Uiso       1.00
       F67          F  0.0232516  0.6865614  0.7002108    0.00000       Uiso       1.00
       F68          F  0.0209222  0.7100302  0.7026020    0.00000       Uiso       1.00
       F69          F  0.0004330  0.6958576  0.7147861    0.00000       Uiso       1.00
      C202          C  0.1064136  0.7062146  0.7911483    0.00000       Uiso       1.00
       F70          F  0.1025045  0.7169749  0.8004370    0.00000       Uiso       1.00
       F71          F  0.1252052  0.7078873  0.7856398    0.00000       Uiso       1.00
       F72          F  0.1052994  0.6935276  0.7980853    0.00000       Uiso       1.00
      C203          C  0.6193162  0.8578108  0.5228756    0.00000       Uiso       1.00
      C204          C  0.5978466  0.8578795  0.5136687    0.00000       Uiso       1.00
      C205          C  0.5853468  0.8732917  0.5107585    0.00000       Uiso       1.00
      C206          C  0.6284540  0.8731835  0.5289726    0.00000       Uiso       1.00
      C207          C  0.6161095  0.8886036  0.5260066    0.00000       Uiso       1.00
      C208          C  0.5941741  0.8890335  0.5168982    0.00000       Uiso       1.00
       H73          H  0.4309430  0.0032263  0.3727537    0.00000       Uiso       1.00
       H74          H  0.6459741  0.8733661  0.5364692    0.00000       Uiso       1.00
       H75          H  0.5901679  0.8454624  0.5085655    0.00000       Uiso       1.00
      C209          C  0.3806787  0.0228746  0.3578067    0.00000       Uiso       1.00
      C210          C  0.4021483  0.0136681  0.3578758    0.00000       Uiso       1.00
      C211          C  0.4146029  0.0106474  0.3732409    0.00000       Uiso       1.00
      C212          C  0.3715409  0.0289715  0.3731793    0.00000       Uiso       1.00
      C213          C  0.3840433  0.0260604  0.3885904    0.00000       Uiso       1.00
      C214          C  0.4059249  0.0168463  0.3889770    0.00000       Uiso       1.00
       H76          H  0.3759750  0.9692947  0.5997627    0.00000       Uiso       1.00
       H77          H  0.3540207  0.0364677  0.3733615    0.00000       Uiso       1.00
       H78          H  0.4098271  0.0085651  0.3454589    0.00000       Uiso       1.00
      C215          C  0.6193171  0.1421959  0.4771283    0.00000       Uiso       1.00
      C216          C  0.5978474  0.1421268  0.4863348    0.00000       Uiso       1.00
      C217          C  0.5853913  0.1267621  0.4893536    0.00000       Uiso       1.00
      C218          C  0.6284549  0.1268234  0.4710313    0.00000       Uiso       1.00
      C219          C  0.6159507  0.1114127  0.4739400    0.00000       Uiso       1.00
      C220          C  0.5940674  0.1110261  0.4831530    0.00000       Uiso       1.00
       H79          H  0.6240181  0.9002407  0.5307089    0.00000       Uiso       1.00
       H80          H  0.6459749  0.1266411  0.4635352    0.00000       Uiso       1.00
       H81          H  0.5901687  0.1545437  0.4914378    0.00000       Uiso       1.00
      C221          C  0.3806775  0.9771279  0.6421925    0.00000       Uiso       1.00
      C222          C  0.4021471  0.9863347  0.6421238    0.00000       Uiso       1.00
      C223          C  0.4146467  0.9892452  0.6267115    0.00000       Uiso       1.00
      C224          C  0.3715397  0.9710308  0.6268198    0.00000       Uiso       1.00
      C225          C  0.3838836  0.9739973  0.6113997    0.00000       Uiso       1.00
      C226          C  0.4058187  0.9831058  0.6109700    0.00000       Uiso       1.00
       H82          H  0.5690492  0.1272487  0.4967727    0.00000       Uiso       1.00
      C227          C  0.4999973  0.0000022  0.4999985    0.00000       Uiso       1.00
       H83          H  0.3540196  0.9635343  0.6266373    0.00000       Uiso       1.00
       H84          H  0.4098258  0.9914379  0.6545409    0.00000       Uiso       1.00
      C228          C  0.5613487  0.8725855  0.5010509    0.00000       Uiso       1.00
       F73          F  0.5536990  0.8859607  0.4998062    0.00000       Uiso       1.00
       F74          F  0.5481074  0.8642470  0.5082970    0.00000       Uiso       1.00
       F75          F  0.5644750  0.8670262  0.4878634    0.00000       Uiso       1.00
      C229          C  0.4386465  0.9989506  0.6274185    0.00000       Uiso       1.00
       F76          F  0.4462973  0.0001953  0.6140434    0.00000       Uiso       1.00
       F77          F  0.4518868  0.9917024  0.6357563    0.00000       Uiso       1.00
       F78          F  0.4355237  0.0121372  0.6329792    0.00000       Uiso       1.00
      C230          C  0.3736289  0.0335604  0.4050888    0.00000       Uiso       1.00
       F79          F  0.3857582  0.0300761  0.4162246    0.00000       Uiso       1.00
       F80          F  0.3548814  0.0281838  0.4073392    0.00000       Uiso       1.00
       F81          F  0.3725376  0.0479734  0.4039158    0.00000       Uiso       1.00
      C231          C  0.6263666  0.0949166  0.4664356    0.00000       Uiso       1.00
       F82          F  0.6142383  0.0837794  0.4699170    0.00000       Uiso       1.00
       F83          F  0.6451142  0.0926656  0.4718118    0.00000       Uiso       1.00
       F84          F  0.6274580  0.0960935  0.4520230    0.00000       Uiso       1.00
      C232          C  0.5806780  0.9056811  0.5139667    0.00000       Uiso       1.00
      C233          C  0.5668077  0.9084381  0.4991046    0.00000       Uiso       1.00
      C234          C  0.5541452  0.9238500  0.4964180    0.00000       Uiso       1.00
      C235          C  0.5815146  0.9190254  0.5260544    0.00000       Uiso       1.00
      C236          C  0.5691220  0.9345411  0.5234423    0.00000       Uiso       1.00
      C237          C  0.5553464  0.9369673  0.5085981    0.00000       Uiso       1.00
       H85          H  0.5914963  0.9172937  0.5377164    0.00000       Uiso       1.00
       H86          H  0.5660637  0.8986710  0.4894474    0.00000       Uiso       1.00
      C238          C  0.4196423  0.0138051  0.4055128    0.00000       Uiso       1.00
      C239          C  0.4450747  0.0127662  0.4057227    0.00000       Uiso       1.00
      C240          C  0.4579794  0.0098981  0.4209823    0.00000       Uiso       1.00
      C241          C  0.4075382  0.0119217  0.4212560    0.00000       Uiso       1.00
      C242          C  0.4202644  0.0092032  0.4366348    0.00000       Uiso       1.00
      C243          C  0.4455613  0.0081424  0.4365038    0.00000       Uiso       1.00
       H87          H  0.3881143  0.0123407  0.4215764    0.00000       Uiso       1.00
       H88          H  0.4550054  0.0144788  0.3940349    0.00000       Uiso       1.00
      C244          C  0.5803471  0.0944905  0.4861928    0.00000       Uiso       1.00
      C245          C  0.5549142  0.0942829  0.4872392    0.00000       Uiso       1.00
      C246          C  0.5420070  0.0790221  0.4901080    0.00000       Uiso       1.00
      C247          C  0.5924504  0.0787462  0.4880685    0.00000       Uiso       1.00
      C248          C  0.5797240  0.0633676  0.4907859    0.00000       Uiso       1.00
      C249          C  0.5544268  0.0634981  0.4918555    0.00000       Uiso       1.00
       H89          H  0.6118727  0.0784242  0.4876440    0.00000       Uiso       1.00
       H90          H  0.5449885  0.1059755  0.4855317    0.00000       Uiso       1.00
      C250          C  0.4193144  0.9860369  0.5943226    0.00000       Uiso       1.00
      C251          C  0.4331783  0.0009013  0.5915625    0.00000       Uiso       1.00
      C252          C  0.4458426  0.0035869  0.5761515    0.00000       Uiso       1.00
      C253          C  0.4184842  0.9739465  0.5809811    0.00000       Uiso       1.00
      C254          C  0.4308762  0.9765587  0.5654652    0.00000       Uiso       1.00
      C255          C  0.4446465  0.9914045  0.5630371    0.00000       Uiso       1.00
       H91          H  0.4085065  0.9622830  0.5827155    0.00000       Uiso       1.00
       H92          H  0.4339116  0.0105604  0.6013278    0.00000       Uiso       1.00
      C256          C  0.4597954  0.0182646  0.5735974    0.00000       Uiso       1.00
      C257          C  0.4725708  0.0207343  0.5583699    0.00000       Uiso       1.00
      C258          C  0.4081396  0.0075580  0.4522269    0.00000       Uiso       1.00
      C259          C  0.4208970  0.0050947  0.4674629    0.00000       Uiso       1.00
       H93          H  0.3887166  0.0082986  0.4526615    0.00000       Uiso       1.00
       H94          H  0.4609686  0.0278207  0.5834637    0.00000       Uiso       1.00
      C260          C  0.4878311  0.0369161  0.5562723    0.00000       Uiso       1.00
       F85          F  0.4968525  0.0368125  0.5432723    0.00000       Uiso       1.00
       F86          F  0.5021524  0.0373397  0.5666153    0.00000       Uiso       1.00
       F87          F  0.4757847  0.0485748  0.5573764    0.00000       Uiso       1.00
      C261          C  0.4068076  0.0035810  0.4842299    0.00000       Uiso       1.00
       F88          F  0.4199077  0.0016419  0.4951908    0.00000       Uiso       1.00
       F89          F  0.3940444  0.9922807  0.4834795    0.00000       Uiso       1.00
       F90          F  0.3960396  0.0157004  0.4864314    0.00000       Uiso       1.00
      C262          C  0.5426028  0.9524888  0.5059958    0.00000       Uiso       1.00
      C263          C  0.5284450  0.9548063  0.4913256    0.00000       Uiso       1.00
      C264          C  0.5152580  0.9700567  0.4890378    0.00000       Uiso       1.00
      C265          C  0.5437417  0.9655566  0.5181990    0.00000       Uiso       1.00
      C266          C  0.5307635  0.9808107  0.5156663    0.00000       Uiso       1.00
      C267          C  0.5162621  0.9835508  0.5010482    0.00000       Uiso       1.00
       H95          H  0.5159264  0.0016547  0.4668763    0.00000       Uiso       1.00
       H96          H  0.5509654  0.0054029  0.4983285    0.00000       Uiso       1.00
      C268          C  0.4584793  0.0054513  0.4519375    0.00000       Uiso       1.00
      C269          C  0.4837517  0.0044565  0.4518015    0.00000       Uiso       1.00
      C270          C  0.4964741  0.0020512  0.4671844    0.00000       Uiso       1.00
      C271          C  0.4461258  0.0040274  0.4675100    0.00000       Uiso       1.00
      C272          C  0.4590895  0.0018532  0.4828730    0.00000       Uiso       1.00
      C273          C  0.4845953  0.0006188  0.4831140    0.00000       Uiso       1.00
       H97          H  0.5037315  0.9709881  0.4780474    0.00000       Uiso       1.00
       H98          H  0.4685020  0.9746615  0.5094146    0.00000       Uiso       1.00
      C274          C  0.5415125  0.0480634  0.4945466    0.00000       Uiso       1.00
      C275          C  0.5162406  0.0482003  0.4955502    0.00000       Uiso       1.00
      C276          C  0.5035201  0.0328166  0.4979551    0.00000       Uiso       1.00
      C277          C  0.5538678  0.0324903  0.4959609    0.00000       Uiso       1.00
      C278          C  0.5409055  0.0171265  0.4981344    0.00000       Uiso       1.00
      C279          C  0.5154001  0.0168864  0.4993801    0.00000       Uiso       1.00
       H99          H  0.4962563  0.0219593  0.5290079    0.00000       Uiso       1.00
      H100          H  0.5314763  0.9905835  0.5253451    0.00000       Uiso       1.00
      C280          C  0.4573900  0.9940069  0.5475157    0.00000       Uiso       1.00
      C281          C  0.4715466  0.0086790  0.5451965    0.00000       Uiso       1.00
      C282          C  0.4847356  0.0109653  0.5299451    0.00000       Uiso       1.00
      C283          C  0.4562509  0.9818027  0.5344476    0.00000       Uiso       1.00
      C284          C  0.4692264  0.9843360  0.5191914    0.00000       Uiso       1.00
      C285          C  0.4837307  0.9989536  0.5164515    0.00000       Uiso       1.00
      H101          H  0.4840679  0.0331228  0.4983662    0.00000       Uiso       1.00
      H102          H  0.4490293  0.0016482  0.4945973    0.00000       Uiso       1.00
      C286          C  0.5790963  0.0325374  0.4948846    0.00000       Uiso       1.00
      C287          C  0.5918519  0.0477747  0.4924223    0.00000       Uiso       1.00
      C288          C  0.5040708  0.0637636  0.4938574    0.00000       Uiso       1.00
      C289          C  0.5167835  0.0789681  0.4911491    0.00000       Uiso       1.00
      C290          C  0.5274138  0.9416306  0.4792723    0.00000       Uiso       1.00
      C291          C  0.5401866  0.9264014  0.4817421    0.00000       Uiso       1.00
      C292          C  0.5576148  0.9630136  0.5329118    0.00000       Uiso       1.00
      C293          C  0.5701135  0.9476997  0.5355084    0.00000       Uiso       1.00
      C294          C  0.4423809  0.9670891  0.5369923    0.00000       Uiso       1.00
      C295          C  0.4298873  0.9644918  0.5523072    0.00000       Uiso       1.00
      C296          C  0.4959215  0.0061566  0.4362379    0.00000       Uiso       1.00
      C297          C  0.4832045  0.0088636  0.4210340    0.00000       Uiso       1.00
      H103          H  0.5153626  0.0055029  0.4358169    0.00000       Uiso       1.00
      H104          H  0.4846306  0.0641855  0.4945179    0.00000       Uiso       1.00
      H105          H  0.6112747  0.0473408  0.4916745    0.00000       Uiso       1.00
      H106          H  0.5586997  0.9728521  0.5425140    0.00000       Uiso       1.00
      H107          H  0.5390078  0.9165308  0.4721894    0.00000       Uiso       1.00
      H108          H  0.4412965  0.9574890  0.5271519    0.00000       Uiso       1.00
      C298          C  0.5121479  0.9437215  0.4630924    0.00000       Uiso       1.00
       F91          F  0.5136467  0.9317573  0.4550028    0.00000       Uiso       1.00
       F92          F  0.5189266  0.9551026  0.4555292    0.00000       Uiso       1.00
       F93          F  0.4925697  0.9458525  0.4667676    0.00000       Uiso       1.00
      C299          C  0.5849403  0.9454628  0.5518720    0.00000       Uiso       1.00
       F94          F  0.5834731  0.9574402  0.5599448    0.00000       Uiso       1.00
       F95          F  0.6045629  0.9431447  0.5484360    0.00000       Uiso       1.00
       F96          F  0.5777605  0.9341477  0.5593486    0.00000       Uiso       1.00
      C300          C  0.4150659  0.9481257  0.5545426    0.00000       Uiso       1.00
       F97          F  0.4165365  0.9400538  0.5425647    0.00000       Uiso       1.00
       F98          F  0.3954419  0.9515582  0.5568604    0.00000       Uiso       1.00
       F99          F  0.4222475  0.9406496  0.5658575    0.00000       Uiso       1.00
      C301          C  0.4973364  0.0107605  0.4043239    0.00000       Uiso       1.00
      F100          F  0.5173863  0.0095464  0.4070134    0.00000       Uiso       1.00
      F101          F  0.4934931  0.0237473  0.3985219    0.00000       Uiso       1.00
      F102          F  0.4915911  0.0003920  0.3950666    0.00000       Uiso       1.00
      C302          C  0.5931850  0.0157691  0.4963871    0.00000       Uiso       1.00
      F103          F  0.6132388  0.0184560  0.4951997    0.00000       Uiso       1.00
      F104          F  0.5873787  0.0067523  0.4858254    0.00000       Uiso       1.00
      F105          F  0.5893667  0.0096860  0.5092483    0.00000       Uiso       1.00
      C303          C  0.5026495  0.0956782  0.4892599    0.00000       Uiso       1.00
      F106          F  0.4826005  0.0929877  0.4904785    0.00000       Uiso       1.00
      F107          F  0.5064856  0.1014834  0.4762735    0.00000       Uiso       1.00
      F108          F  0.5083995  0.1049332  0.4996291    0.00000       Uiso       1.00
      C304          C  0.3806777  0.5228749  0.8578071    0.00000       Uiso       1.00
      C305          C  0.4021473  0.5136684  0.8578762    0.00000       Uiso       1.00
      C306          C  0.4146471  0.5107583  0.8732886    0.00000       Uiso       1.00
      C307          C  0.3715398  0.5289718  0.8731796    0.00000       Uiso       1.00
      C308          C  0.3838843  0.5260060  0.8885999    0.00000       Uiso       1.00
      C309          C  0.4058198  0.5168979  0.8890303    0.00000       Uiso       1.00
      H109          H  0.5690529  0.3727564  0.0032263    0.00000       Uiso       1.00
      H110          H  0.3540198  0.5364680  0.8733618    0.00000       Uiso       1.00
      H111          H  0.4098261  0.5085654  0.8454593    0.00000       Uiso       1.00
      C310          C  0.6193173  0.3578104  0.0228755    0.00000       Uiso       1.00
      C311          C  0.5978476  0.3578791  0.0136686    0.00000       Uiso       1.00
      C312          C  0.5853931  0.3732439  0.0106477    0.00000       Uiso       1.00
      C313          C  0.6284551  0.3731831  0.0289726    0.00000       Uiso       1.00
      C314          C  0.6159526  0.3885940  0.0260612    0.00000       Uiso       1.00
      C315          C  0.5940710  0.3889802  0.0168467    0.00000       Uiso       1.00
      H112          H  0.6240185  0.5997665  0.9692955    0.00000       Uiso       1.00
      H113          H  0.6459752  0.3733656  0.0364691    0.00000       Uiso       1.00
      H114          H  0.5901690  0.3454620  0.0085655    0.00000       Uiso       1.00
      C316          C  0.3806785  0.4771276  0.1421924    0.00000       Uiso       1.00
      C317          C  0.4021481  0.4863344  0.1421237    0.00000       Uiso       1.00
      C318          C  0.4146042  0.4893535  0.1267593    0.00000       Uiso       1.00
      C319          C  0.3715407  0.4710305  0.1268197    0.00000       Uiso       1.00
      C320          C  0.3840448  0.4739393  0.1114093    0.00000       Uiso       1.00
      C321          C  0.4059282  0.4831528  0.1110231    0.00000       Uiso       1.00
      H115          H  0.3759757  0.5307081  0.9002369    0.00000       Uiso       1.00
      H116          H  0.3540206  0.4635340  0.1266372    0.00000       Uiso       1.00
      H117          H  0.4098268  0.4914376  0.1545408    0.00000       Uiso       1.00
      C322          C  0.6193159  0.6421962  0.9771285    0.00000       Uiso       1.00
      C323          C  0.5978463  0.6421271  0.9863350    0.00000       Uiso       1.00
      C324          C  0.5853467  0.6267146  0.9892452    0.00000       Uiso       1.00
      C325          C  0.6284539  0.6268237  0.9710316    0.00000       Uiso       1.00
      C326          C  0.6161098  0.6114033  0.9739979    0.00000       Uiso       1.00
      C327          C  0.5941747  0.6109732  0.9831060    0.00000       Uiso       1.00
      H118          H  0.4309463  0.4967730  0.1272462    0.00000       Uiso       1.00
      C328          C  0.4999985  0.5000000  0.0000010    0.00000       Uiso       1.00
      H119          H  0.6459739  0.6266415  0.9635354    0.00000       Uiso       1.00
      H120          H  0.5901676  0.6545441  0.9914380    0.00000       Uiso       1.00
      C329          C  0.4386452  0.5010513  0.8725829    0.00000       Uiso       1.00
      F109          F  0.4462949  0.4998066  0.8859582    0.00000       Uiso       1.00
      F110          F  0.4518866  0.5082976  0.8642445    0.00000       Uiso       1.00
      F111          F  0.4355189  0.4878637  0.8670235    0.00000       Uiso       1.00
      C330          C  0.5613469  0.6274211  0.9989501    0.00000       Uiso       1.00
      F112          F  0.5536982  0.6140459  0.0001950    0.00000       Uiso       1.00
      F113          F  0.5481066  0.6357586  0.9917019    0.00000       Uiso       1.00
      F114          F  0.5644717  0.6329818  0.0121371    0.00000       Uiso       1.00
      C331          C  0.6263670  0.4050926  0.0335615    0.00000       Uiso       1.00
      F115          F  0.6142376  0.4162282  0.0300770    0.00000       Uiso       1.00
      F116          F  0.6451144  0.4073434  0.0281852    0.00000       Uiso       1.00
      F117          F  0.6274582  0.4039196  0.0479745    0.00000       Uiso       1.00
      C332          C  0.3736290  0.4664348  0.0949131    0.00000       Uiso       1.00
      F118          F  0.3857574  0.4699163  0.0837761    0.00000       Uiso       1.00
      F119          F  0.3548814  0.4718106  0.0926617    0.00000       Uiso       1.00
      F120          F  0.3725376  0.4520221  0.0960899    0.00000       Uiso       1.00
      C333          C  0.4193158  0.5139667  0.9056781    0.00000       Uiso       1.00
      C334          C  0.4331861  0.4991049  0.9084354    0.00000       Uiso       1.00
      C335          C  0.4458486  0.4964185  0.9238474    0.00000       Uiso       1.00
      C336          C  0.4184792  0.5260544  0.9190223    0.00000       Uiso       1.00
      C337          C  0.4308718  0.5234426  0.9345383    0.00000       Uiso       1.00
      C338          C  0.4446474  0.5085987  0.9369648    0.00000       Uiso       1.00
      H121          H  0.4084974  0.5377163  0.9172905    0.00000       Uiso       1.00
      H122          H  0.4339302  0.4894477  0.8986683    0.00000       Uiso       1.00
      C339          C  0.5803536  0.4055157  0.0138053    0.00000       Uiso       1.00
      C340          C  0.5549212  0.4057252  0.0127660    0.00000       Uiso       1.00
      C341          C  0.5420164  0.4209845  0.0098976    0.00000       Uiso       1.00
      C342          C  0.5924577  0.4212592  0.0119221    0.00000       Uiso       1.00
      C343          C  0.5797315  0.4366378  0.0092034    0.00000       Uiso       1.00
      C344          C  0.5544346  0.4365062  0.0081421    0.00000       Uiso       1.00
      H123          H  0.6118816  0.4215799  0.0123415    0.00000       Uiso       1.00
      H124          H  0.5449905  0.3940372  0.0144783    0.00000       Uiso       1.00
      C345          C  0.4196485  0.4861928  0.0944878    0.00000       Uiso       1.00
      C346          C  0.4450815  0.4872397  0.0942806    0.00000       Uiso       1.00
      C347          C  0.4579886  0.4901086  0.0790201    0.00000       Uiso       1.00
      C348          C  0.4075452  0.4880683  0.0787433    0.00000       Uiso       1.00
      C349          C  0.4202717  0.4907859  0.0633649    0.00000       Uiso       1.00
      C350          C  0.4455688  0.4918560  0.0634958    0.00000       Uiso       1.00
      H125          H  0.3881229  0.4876434  0.0784209    0.00000       Uiso       1.00
      H126          H  0.4550071  0.4855324  0.1059734    0.00000       Uiso       1.00
      C351          C  0.5806791  0.5943255  0.9860369    0.00000       Uiso       1.00
      C352          C  0.5668173  0.5915652  0.0009012    0.00000       Uiso       1.00
      C353          C  0.5541530  0.5761540  0.0035866    0.00000       Uiso       1.00
      C354          C  0.5815094  0.5809841  0.9739465    0.00000       Uiso       1.00
      C355          C  0.5691174  0.5654679  0.9765586    0.00000       Uiso       1.00
      C356          C  0.5553470  0.5630396  0.9914041    0.00000       Uiso       1.00
      H127          H  0.5914871  0.5827187  0.9622831    0.00000       Uiso       1.00
      H128          H  0.5660840  0.6013305  0.0105603    0.00000       Uiso       1.00
      C357          C  0.5402002  0.5735997  0.0182641    0.00000       Uiso       1.00
      C358          C  0.5274248  0.5583718  0.0207335    0.00000       Uiso       1.00
      C359          C  0.5918562  0.4522301  0.0075584    0.00000       Uiso       1.00
      C360          C  0.5790988  0.4674658  0.0050948    0.00000       Uiso       1.00
      H129          H  0.6112792  0.4526650  0.0082994    0.00000       Uiso       1.00
      H130          H  0.5390269  0.5834659  0.0278201    0.00000       Uiso       1.00
      C361          C  0.5121645  0.5562739  0.0369150    0.00000       Uiso       1.00
      F121          F  0.5031431  0.5432739  0.0368113    0.00000       Uiso       1.00
      F122          F  0.4978432  0.5666167  0.0373383    0.00000       Uiso       1.00
      F123          F  0.5242109  0.5573784  0.0485740    0.00000       Uiso       1.00
      C362          C  0.5931882  0.4842331  0.0035814    0.00000       Uiso       1.00
      F124          F  0.5800881  0.4951937  0.0016421    0.00000       Uiso       1.00
      F125          F  0.6059493  0.4834829  0.9922811    0.00000       Uiso       1.00
      F126          F  0.6039562  0.4864348  0.0157011    0.00000       Uiso       1.00
      C363          C  0.4573909  0.5059965  0.9524866    0.00000       Uiso       1.00
      C364          C  0.4715487  0.4913266  0.9548042    0.00000       Uiso       1.00
      C365          C  0.4847357  0.4890390  0.9700549    0.00000       Uiso       1.00
      C366          C  0.4562520  0.5181997  0.9655543    0.00000       Uiso       1.00
      C367          C  0.4692302  0.5156672  0.9808086    0.00000       Uiso       1.00
      C368          C  0.4837317  0.5010493  0.9835491    0.00000       Uiso       1.00
      H131          H  0.4840695  0.4668775  0.0016531    0.00000       Uiso       1.00
      H132          H  0.4490303  0.4983290  0.0054007    0.00000       Uiso       1.00
      C369          C  0.5415165  0.4519397  0.0054508    0.00000       Uiso       1.00
      C370          C  0.5162442  0.4518032  0.0044556    0.00000       Uiso       1.00
      C371          C  0.5035217  0.4671859  0.0020500    0.00000       Uiso       1.00
      C372          C  0.5538701  0.4675125  0.0040272    0.00000       Uiso       1.00
      C373          C  0.5409063  0.4828752  0.0018527    0.00000       Uiso       1.00
      C374          C  0.5154005  0.4831158  0.0006178    0.00000       Uiso       1.00
      H133          H  0.4962622  0.4780488  0.9709865    0.00000       Uiso       1.00
      H134          H  0.5314917  0.5094166  0.9746605    0.00000       Uiso       1.00
      C375          C  0.4584832  0.4945473  0.0480614    0.00000       Uiso       1.00
      C376          C  0.4837551  0.4955515  0.0481987    0.00000       Uiso       1.00
      C377          C  0.4964756  0.4979565  0.0328153    0.00000       Uiso       1.00
      C378          C  0.4461279  0.4959614  0.0324880    0.00000       Uiso       1.00
      C379          C  0.4590902  0.4981352  0.0171245    0.00000       Uiso       1.00
      C380          C  0.4845957  0.4993813  0.0168849    0.00000       Uiso       1.00
      H135          H  0.5037394  0.5290095  0.0219581    0.00000       Uiso       1.00
      H136          H  0.4685174  0.5253460  0.9905813    0.00000       Uiso       1.00
      C381          C  0.5426036  0.5475180  0.9940062    0.00000       Uiso       1.00
      C382          C  0.5284490  0.5451984  0.0086783    0.00000       Uiso       1.00
      C383          C  0.5152600  0.5299469  0.0109643    0.00000       Uiso       1.00
      C384          C  0.5437427  0.5344498  0.9818019    0.00000       Uiso       1.00
      C385          C  0.5307673  0.5191935  0.9843350    0.00000       Uiso       1.00
      C386          C  0.5162629  0.5164533  0.9989523    0.00000       Uiso       1.00
      H137          H  0.5159277  0.4983679  0.0331218    0.00000       Uiso       1.00
      H138          H  0.5509665  0.4945997  0.0016478    0.00000       Uiso       1.00
      C387          C  0.4208994  0.4948846  0.0325347    0.00000       Uiso       1.00
      C388          C  0.4081438  0.4924221  0.0477717    0.00000       Uiso       1.00
      C389          C  0.4959249  0.4938588  0.0637623    0.00000       Uiso       1.00
      C390          C  0.4832121  0.4911503  0.0789665    0.00000       Uiso       1.00
      C391          C  0.4725799  0.4792733  0.9416286    0.00000       Uiso       1.00
      C392          C  0.4598072  0.4817429  0.9263992    0.00000       Uiso       1.00
      C393          C  0.4423788  0.5329122  0.9630111    0.00000       Uiso       1.00
      C394          C  0.4298801  0.5355087  0.9476969    0.00000       Uiso       1.00
      C395          C  0.5576128  0.5369948  0.9670886    0.00000       Uiso       1.00
      C396          C  0.5701063  0.5523099  0.9644916    0.00000       Uiso       1.00
      C397          C  0.5040744  0.4362395  0.0061555    0.00000       Uiso       1.00
      C398          C  0.5167913  0.4210358  0.0088627    0.00000       Uiso       1.00
      H139          H  0.4846333  0.4358181  0.0055013    0.00000       Uiso       1.00
      H140          H  0.5153651  0.4945197  0.0641845    0.00000       Uiso       1.00
      H141          H  0.3887210  0.4916739  0.0473375    0.00000       Uiso       1.00
      H142          H  0.4412939  0.5425144  0.9728494    0.00000       Uiso       1.00
      H143          H  0.4609861  0.4721901  0.9165286    0.00000       Uiso       1.00
      H144          H  0.5586972  0.5271545  0.9574885    0.00000       Uiso       1.00
      C399          C  0.4878459  0.4630936  0.9437198    0.00000       Uiso       1.00
      F127          F  0.4863472  0.4550041  0.9317556    0.00000       Uiso       1.00
      F128          F  0.4810672  0.4555303  0.9551007    0.00000       Uiso       1.00
      F129          F  0.5074242  0.4667693  0.9458511    0.00000       Uiso       1.00
      C400          C  0.4150534  0.5518720  0.9454597    0.00000       Uiso       1.00
      F130          F  0.4165205  0.5599447  0.9574372    0.00000       Uiso       1.00
      F131          F  0.3954308  0.5484356  0.9431412    0.00000       Uiso       1.00
      F132          F  0.4222332  0.5593486  0.9341447    0.00000       Uiso       1.00
      C401          C  0.5849278  0.5545456  0.9481257    0.00000       Uiso       1.00
      F133          F  0.5834572  0.5425678  0.9400538    0.00000       Uiso       1.00
      F134          F  0.6045517  0.5568638  0.9515585    0.00000       Uiso       1.00
      F135          F  0.5777462  0.5658605  0.9406496    0.00000       Uiso       1.00
      C402          C  0.5026596  0.4043254  0.0107593    0.00000       Uiso       1.00
      F136          F  0.4826097  0.4070145  0.0095449    0.00000       Uiso       1.00
      F137          F  0.5065029  0.3985234  0.0237461    0.00000       Uiso       1.00
      F138          F  0.5084049  0.3950682  0.0003909    0.00000       Uiso       1.00
      C403          C  0.4068108  0.4963869  0.0157661    0.00000       Uiso       1.00
      F139          F  0.3867570  0.4951991  0.0184527    0.00000       Uiso       1.00
      F140          F  0.4126170  0.4858253  0.0067494    0.00000       Uiso       1.00
      F141          F  0.4106290  0.5092482  0.0096831    0.00000       Uiso       1.00
      C404          C  0.4973461  0.4892613  0.0956768    0.00000       Uiso       1.00
      F142          F  0.5173951  0.4904803  0.0929867    0.00000       Uiso       1.00
      F143          F  0.4935099  0.4762748  0.1014820    0.00000       Uiso       1.00
      F144          F  0.4915961  0.4996304  0.1049318    0.00000       Uiso       1.00
      C405          C  0.1650638  0.3693183  0.2499977    0.00000       Uiso       1.00
      C406          C  0.1557883  0.3631523  0.2346939    0.00000       Uiso       1.00
      C407          C  0.1374658  0.3506511  0.2346950    0.00000       Uiso       1.00
      C408          C  0.1557882  0.3631523  0.2653013    0.00000       Uiso       1.00
      C409          C  0.1374022  0.3507528  0.2653561    0.00000       Uiso       1.00
      C410          C  0.1278637  0.3441240  0.2500492    0.00000       Uiso       1.00
      H145          H  0.8695268  0.2774797  0.1534567    0.00000       Uiso       1.00
      H146          H  0.1631022  0.3680731  0.2779008    0.00000       Uiso       1.00
      H147          H  0.1631022  0.3680731  0.2220946    0.00000       Uiso       1.00
      C411          C  0.8349316  0.2499961  0.1306754    0.00000       Uiso       1.00
      C412          C  0.8442072  0.2652999  0.1368414    0.00000       Uiso       1.00
      C413          C  0.8625929  0.2653553  0.1492409    0.00000       Uiso       1.00
      C414          C  0.8442072  0.2346925  0.1368414    0.00000       Uiso       1.00
      C415          C  0.8625296  0.2346940  0.1493427    0.00000       Uiso       1.00
      C416          C  0.8721302  0.2500488  0.1558696    0.00000       Uiso       1.00
      H148          H  0.1304673  0.1534598  0.2225147    0.00000       Uiso       1.00
      H149          H  0.8368933  0.2220930  0.1319206    0.00000       Uiso       1.00
      H150          H  0.8368932  0.2778992  0.1319206    0.00000       Uiso       1.00
      C417          C  0.8349316  0.2499961  0.3693138    0.00000       Uiso       1.00
      C418          C  0.8442072  0.2346925  0.3631480    0.00000       Uiso       1.00
      C419          C  0.8625907  0.2346373  0.3507473    0.00000       Uiso       1.00
      C420          C  0.8442072  0.2652999  0.3631480    0.00000       Uiso       1.00
      C421          C  0.8625265  0.2652989  0.3506452    0.00000       Uiso       1.00
      C422          C  0.8721262  0.2499439  0.3441171    0.00000       Uiso       1.00
      H151          H  0.1304673  0.3465374  0.2774799    0.00000       Uiso       1.00
      H152          H  0.8368933  0.2778992  0.3680686    0.00000       Uiso       1.00
      H153          H  0.8368933  0.2220930  0.3680686    0.00000       Uiso       1.00
      C423          C  0.1650640  0.1306799  0.2499977    0.00000       Uiso       1.00
      C424          C  0.1557884  0.1368457  0.2653013    0.00000       Uiso       1.00
      C425          C  0.1374657  0.1493464  0.2653000    0.00000       Uiso       1.00
      C426          C  0.1557884  0.1368457  0.2346939    0.00000       Uiso       1.00
      C427          C  0.1374017  0.1492445  0.2346388    0.00000       Uiso       1.00
      C428          C  0.1278634  0.1558727  0.2499455    0.00000       Uiso       1.00
      H154          H  0.8695233  0.2225134  0.3465294    0.00000       Uiso       1.00
      C429          C  0.9999957  0.2499983  0.2499948    0.00000       Uiso       1.00
      H155          H  0.1631024  0.1319251  0.2220946    0.00000       Uiso       1.00
      H156          H  0.1631023  0.1319251  0.2779008    0.00000       Uiso       1.00
      C430          C  0.1284645  0.3438587  0.2174892    0.00000       Uiso       1.00
      F145          F  0.1138446  0.3339684  0.2197295    0.00000       Uiso       1.00
      F146          F  0.1440492  0.3377842  0.2103226    0.00000       Uiso       1.00
      F147          F  0.1208363  0.3547952  0.2096788    0.00000       Uiso       1.00
      C431          C  0.1284672  0.1561403  0.2825057    0.00000       Uiso       1.00
      F148          F  0.1138467  0.1660300  0.2802654    0.00000       Uiso       1.00
      F149          F  0.1440530  0.1622158  0.2896707    0.00000       Uiso       1.00
      F150          F  0.1208406  0.1452043  0.2903177    0.00000       Uiso       1.00
      C432          C  0.8715279  0.2174875  0.1561349    0.00000       Uiso       1.00
      F151          F  0.8861480  0.2197267  0.1660253    0.00000       Uiso       1.00
      F152          F  0.8791550  0.2096768  0.1451983    0.00000       Uiso       1.00
      F153          F  0.8559419  0.2103218  0.1622091    0.00000       Uiso       1.00
      C433          C  0.8715183  0.2825072  0.3438530    0.00000       Uiso       1.00
      F154          F  0.8861368  0.2802710  0.3339610    0.00000       Uiso       1.00
      F155          F  0.8791454  0.2903187  0.3547892    0.00000       Uiso       1.00
      F156          F  0.8559287  0.2896706  0.3377806    0.00000       Uiso       1.00
      C434          C  0.1082847  0.3305176  0.2501592    0.00000       Uiso       1.00
      C435          C  0.0906656  0.3296347  0.2371715    0.00000       Uiso       1.00
      C436          C  0.0725671  0.3169406  0.2372028    0.00000       Uiso       1.00
      C437          C  0.1070281  0.3182200  0.2632934    0.00000       Uiso       1.00
      C438          C  0.0889004  0.3055716  0.2635489    0.00000       Uiso       1.00
      C439          C  0.0716300  0.3048925  0.2504521    0.00000       Uiso       1.00
      H157          H  0.1204219  0.3182458  0.2732496    0.00000       Uiso       1.00
      H158          H  0.0907755  0.3389748  0.2270873    0.00000       Uiso       1.00
      C440          C  0.8917071  0.2501605  0.1694756    0.00000       Uiso       1.00
      C441          C  0.8929560  0.2632914  0.1817771    0.00000       Uiso       1.00
      C442          C  0.9110835  0.2635483  0.1944253    0.00000       Uiso       1.00
      C443          C  0.9093338  0.2371786  0.1703538    0.00000       Uiso       1.00
      C444          C  0.9274311  0.2372118  0.1830471    0.00000       Uiso       1.00
      C445          C  0.9283609  0.2504564  0.1950994    0.00000       Uiso       1.00
      H159          H  0.9092352  0.2270968  0.1610117    0.00000       Uiso       1.00
      H160          H  0.8795555  0.2732444  0.1817546    0.00000       Uiso       1.00
      C446          C  0.8917016  0.2498317  0.3305093    0.00000       Uiso       1.00
      C447          C  0.8929557  0.2366956  0.3182125    0.00000       Uiso       1.00
      C448          C  0.9110852  0.2364381  0.3055632    0.00000       Uiso       1.00
      C449          C  0.9093215  0.2628179  0.3296267    0.00000       Uiso       1.00
      C450          C  0.9274176  0.2627853  0.3169332    0.00000       Uiso       1.00
      C451          C  0.9283567  0.2495365  0.3048849    0.00000       Uiso       1.00
      H161          H  0.9092190  0.2729025  0.3389644    0.00000       Uiso       1.00
      H162          H  0.8795556  0.2267400  0.3182422    0.00000       Uiso       1.00
      C452          C  0.1082848  0.1694787  0.2498348    0.00000       Uiso       1.00
      C453          C  0.0906599  0.1703576  0.2628183    0.00000       Uiso       1.00
      C454          C  0.0725633  0.1830523  0.2627875    0.00000       Uiso       1.00
      C455          C  0.1070338  0.1817794  0.2367038    0.00000       Uiso       1.00
      C456          C  0.0889056  0.1944272  0.2364476    0.00000       Uiso       1.00
      C457          C  0.0716317  0.1951035  0.2495414    0.00000       Uiso       1.00
      H163          H  0.1204318  0.1817552  0.2267506    0.00000       Uiso       1.00
      H164          H  0.0907660  0.1610120  0.2728972    0.00000       Uiso       1.00
      C458          C  0.0553314  0.1839669  0.2758255    0.00000       Uiso       1.00
      C459          C  0.0376342  0.1967335  0.2758340    0.00000       Uiso       1.00
      C460          C  0.9446684  0.2241760  0.1839585    0.00000       Uiso       1.00
      C461          C  0.9623677  0.2241687  0.1967235    0.00000       Uiso       1.00
      H165          H  0.9443624  0.2138767  0.1748347    0.00000       Uiso       1.00
      H166          H  0.0556417  0.1748424  0.2861233    0.00000       Uiso       1.00
      C462          C  0.0193547  0.1973215  0.2905059    0.00000       Uiso       1.00
      F157          F  0.0064583  0.2083839  0.2884647    0.00000       Uiso       1.00
      F158          F  0.0292742  0.1990991  0.3030498    0.00000       Uiso       1.00
      F159          F  0.0088002  0.1849167  0.2908642    0.00000       Uiso       1.00
      C463          C  0.9806484  0.2094973  0.1973057    0.00000       Uiso       1.00
      F160          F  0.9935483  0.2115368  0.2083667    0.00000       Uiso       1.00
      F161          F  0.9911989  0.2091419  0.1848993    0.00000       Uiso       1.00
      F162          F  0.9707305  0.1969527  0.1990823    0.00000       Uiso       1.00
      C464          C  0.0535060  0.2920608  0.2505399    0.00000       Uiso       1.00
      C465          C  0.0365184  0.2911580  0.2372846    0.00000       Uiso       1.00
      C466          C  0.0189803  0.2780829  0.2371724    0.00000       Uiso       1.00
      C467          C  0.0526415  0.2799948  0.2637448    0.00000       Uiso       1.00
      C468          C  0.0348547  0.2671447  0.2636164    0.00000       Uiso       1.00
      C469          C  0.0174964  0.2658327  0.2504267    0.00000       Uiso       1.00
      H167          H  0.9652210  0.2736975  0.2422240    0.00000       Uiso       1.00
      H168          H  0.9929250  0.2736174  0.2773437    0.00000       Uiso       1.00
      C470          C  0.9464856  0.2505444  0.2079297    0.00000       Uiso       1.00
      C471          C  0.9473443  0.2637462  0.2200003    0.00000       Uiso       1.00
      C472          C  0.9651326  0.2636189  0.2328504    0.00000       Uiso       1.00
      C473          C  0.9634820  0.2372933  0.2088276    0.00000       Uiso       1.00
      C474          C  0.9810193  0.2371811  0.2219039    0.00000       Uiso       1.00
      C475          C  0.9824947  0.2504310  0.2341599    0.00000       Uiso       1.00
      H169          H  0.0070584  0.2773490  0.2263796    0.00000       Uiso       1.00
      H170          H  0.0347523  0.2422139  0.2262857    0.00000       Uiso       1.00
      C476          C  0.9464826  0.2494512  0.2920562    0.00000       Uiso       1.00
      C477          C  0.9473494  0.2362447  0.2799908    0.00000       Uiso       1.00
      C478          C  0.9651379  0.2363739  0.2671414    0.00000       Uiso       1.00
      C479          C  0.9634699  0.2627085  0.2911544    0.00000       Uiso       1.00
      C480          C  0.9810073  0.2628225  0.2780785    0.00000       Uiso       1.00
      C481          C  0.9824931  0.2495668  0.2658288    0.00000       Uiso       1.00
      H171          H  0.0070472  0.2226446  0.2736077    0.00000       Uiso       1.00
      H172          H  0.0347608  0.2577753  0.2736985    0.00000       Uiso       1.00
      C482          C  0.0535079  0.2079347  0.2494533    0.00000       Uiso       1.00
      C483          C  0.0365160  0.2088357  0.2627075    0.00000       Uiso       1.00
      C484          C  0.0189784  0.2219127  0.2628192    0.00000       Uiso       1.00
      C485          C  0.0526441  0.2200013  0.2362476    0.00000       Uiso       1.00
      C486          C  0.0348546  0.2328504  0.2363736    0.00000       Uiso       1.00
      C487          C  0.0174970  0.2341637  0.2495643    0.00000       Uiso       1.00
      H173          H  0.9652428  0.2262891  0.2577741    0.00000       Uiso       1.00
      H174          H  0.9929486  0.2263914  0.2226336    0.00000       Uiso       1.00
      C488          C  0.9623465  0.2758375  0.3032539    0.00000       Uiso       1.00
      C489          C  0.9446470  0.2758278  0.3160189    0.00000       Uiso       1.00
      C490          C  0.9300932  0.2232243  0.2808411    0.00000       Uiso       1.00
      C491          C  0.9121804  0.2233326  0.2934453    0.00000       Uiso       1.00
      C492          C  0.0376408  0.3032569  0.2241545    0.00000       Uiso       1.00
      C493          C  0.0553398  0.3160232  0.2241613    0.00000       Uiso       1.00
      C494          C  0.0698972  0.2808467  0.2767664    0.00000       Uiso       1.00
      C495          C  0.0878078  0.2934550  0.2766571    0.00000       Uiso       1.00
      C496          C  0.0699024  0.2191508  0.2232283    0.00000       Uiso       1.00
      C497          C  0.0878146  0.2065452  0.2233407    0.00000       Uiso       1.00
      C498          C  0.9300807  0.2767628  0.2191532    0.00000       Uiso       1.00
      C499          C  0.9121698  0.2766525  0.2065462    0.00000       Uiso       1.00
      H175          H  0.9303133  0.2870209  0.2283362    0.00000       Uiso       1.00
      H176          H  0.9303318  0.2129629  0.2716624    0.00000       Uiso       1.00
      H177          H  0.9443329  0.2861302  0.3251393    0.00000       Uiso       1.00
      H178          H  0.0696610  0.2716689  0.2870291    0.00000       Uiso       1.00
      H179          H  0.0556577  0.3251455  0.2138601    0.00000       Uiso       1.00
      H180          H  0.0696622  0.2283288  0.2129660    0.00000       Uiso       1.00
      C500          C  0.0193699  0.3026681  0.2094770    0.00000       Uiso       1.00
      F163          F  0.0232446  0.3134444  0.2001996    0.00000       Uiso       1.00
      F164          F  0.0004257  0.3041484  0.2147751    0.00000       Uiso       1.00
      F165          F  0.0209143  0.2899757  0.2025912    0.00000       Uiso       1.00
      C501          C  0.1064083  0.2938053  0.2911339    0.00000       Uiso       1.00
      F166          F  0.1025037  0.2830466  0.3004254    0.00000       Uiso       1.00
      F167          F  0.1052905  0.3064939  0.2980679    0.00000       Uiso       1.00
      F168          F  0.1252000  0.2921349  0.2856249    0.00000       Uiso       1.00
      C502          C  0.1064163  0.2061999  0.2088649    0.00000       Uiso       1.00
      F169          F  0.1025102  0.2169600  0.1995753    0.00000       Uiso       1.00
      F170          F  0.1053015  0.1935126  0.2019283    0.00000       Uiso       1.00
      F171          F  0.1252072  0.2078715  0.2143753    0.00000       Uiso       1.00
      C503          C  0.8935627  0.2911250  0.2062052    0.00000       Uiso       1.00
      F172          F  0.8974662  0.3004124  0.2169677    0.00000       Uiso       1.00
      F173          F  0.8747740  0.2856107  0.2078758    0.00000       Uiso       1.00
      F174          F  0.8946739  0.2980652  0.1935198    0.00000       Uiso       1.00
      C504          C  0.9806173  0.2905151  0.3026654    0.00000       Uiso       1.00
      F175          F  0.9767430  0.2997923  0.3134418    0.00000       Uiso       1.00
      F176          F  0.9790725  0.2974011  0.2899731    0.00000       Uiso       1.00
      F177          F  0.9995616  0.2852170  0.3041455    0.00000       Uiso       1.00
      C505          C  0.8935811  0.2088549  0.2937886    0.00000       Uiso       1.00
      F178          F  0.8974902  0.1995661  0.2830284    0.00000       Uiso       1.00
      F179          F  0.8747895  0.2143634  0.2921160    0.00000       Uiso       1.00
      F180          F  0.8946952  0.2019178  0.3064757    0.00000       Uiso       1.00
      C506          C  0.6193158  0.8578109  0.9771285    0.00000       Uiso       1.00
      C507          C  0.6284537  0.8731835  0.9710316    0.00000       Uiso       1.00
      C508          C  0.6159513  0.8885946  0.9739428    0.00000       Uiso       1.00
      C509          C  0.5978462  0.8578795  0.9863350    0.00000       Uiso       1.00
      C510          C  0.5853919  0.8732446  0.9893557    0.00000       Uiso       1.00
      C511          C  0.5940700  0.8889817  0.9831573    0.00000       Uiso       1.00
      H181          H  0.6240199  0.0997664  0.0307101    0.00000       Uiso       1.00
      H182          H  0.5901675  0.8454624  0.9914380    0.00000       Uiso       1.00
      H183          H  0.6459737  0.8733661  0.9635354    0.00000       Uiso       1.00
      C512          C  0.6193177  0.1421961  0.0228755    0.00000       Uiso       1.00
      C513          C  0.6284555  0.1268235  0.0289726    0.00000       Uiso       1.00
      C514          C  0.6161114  0.1114033  0.0260069    0.00000       Uiso       1.00
      C515          C  0.5978481  0.1421270  0.0136686    0.00000       Uiso       1.00
      C516          C  0.5853483  0.1267145  0.0107586    0.00000       Uiso       1.00
      C517          C  0.5941762  0.1109734  0.0168991    0.00000       Uiso       1.00
      H184          H  0.4309401  0.9967780  0.8727547    0.00000       Uiso       1.00
      H185          H  0.5901694  0.1545439  0.0085654    0.00000       Uiso       1.00
      H186          H  0.6459756  0.1266413  0.0364691    0.00000       Uiso       1.00
      C518          C  0.3806791  0.0228746  0.1421924    0.00000       Uiso       1.00
      C519          C  0.3715413  0.0289715  0.1268197    0.00000       Uiso       1.00
      C520          C  0.3838869  0.0260079  0.1114000    0.00000       Uiso       1.00
      C521          C  0.4021487  0.0136680  0.1421237    0.00000       Uiso       1.00
      C522          C  0.4146506  0.0107606  0.1267121    0.00000       Uiso       1.00
      C523          C  0.4058237  0.0169023  0.1109705    0.00000       Uiso       1.00
      H187          H  0.5690526  0.8727576  0.9967773    0.00000       Uiso       1.00
      H188          H  0.4098275  0.0085650  0.1545408    0.00000       Uiso       1.00
      H189          H  0.3540212  0.0364676  0.1266372    0.00000       Uiso       1.00
      C524          C  0.3806773  0.9771279  0.8578072    0.00000       Uiso       1.00
      C525          C  0.3715395  0.9710308  0.8731797    0.00000       Uiso       1.00
      C526          C  0.3840415  0.9739423  0.8885910    0.00000       Uiso       1.00
      C527          C  0.4021469  0.9863347  0.8578762    0.00000       Uiso       1.00
      C528          C  0.4146007  0.9893562  0.8732416    0.00000       Uiso       1.00
      C529          C  0.4059224  0.9831578  0.8889782    0.00000       Uiso       1.00
      H190          H  0.3759809  0.0307126  0.0997627    0.00000       Uiso       1.00
      C530          C  0.5000005  0.0000036  0.0000017    0.00000       Uiso       1.00
      H191          H  0.4098257  0.9914379  0.8454593    0.00000       Uiso       1.00
      H192          H  0.3540194  0.9635343  0.8733619    0.00000       Uiso       1.00
      C531          C  0.6263646  0.9050944  0.9664446    0.00000       Uiso       1.00
      F181          F  0.6142340  0.9162290  0.9699295    0.00000       Uiso       1.00
      F182          F  0.6274569  0.9039227  0.9520315    0.00000       Uiso       1.00
      F183          F  0.6451116  0.9073454  0.9718220    0.00000       Uiso       1.00
      C532          C  0.3736297  0.9664416  0.9050899    0.00000       Uiso       1.00
      F184          F  0.3857596  0.9699272  0.9162251    0.00000       Uiso       1.00
      F185          F  0.3725402  0.9520286  0.9039171    0.00000       Uiso       1.00
      F186          F  0.3548817  0.9718167  0.9073411    0.00000       Uiso       1.00
      C533          C  0.5613496  0.1274223  0.0010520    0.00000       Uiso       1.00
      F187          F  0.5536974  0.1140475  0.9998068    0.00000       Uiso       1.00
      F188          F  0.5644745  0.1329826  0.9878651    0.00000       Uiso       1.00
      F189          F  0.5481097  0.1357608  0.0082992    0.00000       Uiso       1.00
      C534          C  0.4386511  0.0010570  0.1274244    0.00000       Uiso       1.00
      F190          F  0.4463058  0.9998125  0.1140510    0.00000       Uiso       1.00
      F191          F  0.4355252  0.9878702  0.1329846    0.00000       Uiso       1.00
      F192          F  0.4518870  0.0083062  0.1357650    0.00000       Uiso       1.00
      C535          C  0.5803535  0.9055191  0.9861987    0.00000       Uiso       1.00
      C536          C  0.5924584  0.9212640  0.9880732    0.00000       Uiso       1.00
      C537          C  0.5797328  0.9366444  0.9907911    0.00000       Uiso       1.00
      C538          C  0.5549217  0.9057289  0.9872450    0.00000       Uiso       1.00
      C539          C  0.5420177  0.9209890  0.9901125    0.00000       Uiso       1.00
      C540          C  0.5544354  0.9365121  0.9918600    0.00000       Uiso       1.00
      H193          H  0.5449914  0.8940411  0.9855389    0.00000       Uiso       1.00
      H194          H  0.6118827  0.9215812  0.9876464    0.00000       Uiso       1.00
      C541          C  0.5806819  0.0943262  0.0139692    0.00000       Uiso       1.00
      C542          C  0.5815113  0.0809855  0.0260610    0.00000       Uiso       1.00
      C543          C  0.5691200  0.0654692  0.0234494    0.00000       Uiso       1.00
      C544          C  0.5668209  0.0915648  0.9991040    0.00000       Uiso       1.00
      C545          C  0.5541608  0.0761529  0.9964183    0.00000       Uiso       1.00
      C546          C  0.5553541  0.0630396  0.0086016    0.00000       Uiso       1.00
      H195          H  0.5660812  0.1013260  0.9894413    0.00000       Uiso       1.00
      H196          H  0.5914868  0.0827205  0.0377266    0.00000       Uiso       1.00
      C547          C  0.4193192  0.0139749  0.0943228    0.00000       Uiso       1.00
      C548          C  0.4184800  0.0260643  0.0809793    0.00000       Uiso       1.00
      C549          C  0.4308719  0.0234533  0.0654611    0.00000       Uiso       1.00
      C550          C  0.4331870  0.9991140  0.0915646    0.00000       Uiso       1.00
      C551          C  0.4458480  0.9964293  0.0761535    0.00000       Uiso       1.00
      C552          C  0.4446486  0.0086077  0.0630354    0.00000       Uiso       1.00
      H197          H  0.4339339  0.9894542  0.1013270    0.00000       Uiso       1.00
      H198          H  0.4084947  0.0377272  0.0827164    0.00000       Uiso       1.00
      C553          C  0.4196389  0.9861994  0.9055156    0.00000       Uiso       1.00
      C554          C  0.4075342  0.9880804  0.9212592    0.00000       Uiso       1.00
      C555          C  0.4202598  0.9907966  0.9366398    0.00000       Uiso       1.00
      C556          C  0.4450707  0.9872402  0.9057261    0.00000       Uiso       1.00
      C557          C  0.4579746  0.9901084  0.9209864    0.00000       Uiso       1.00
      C558          C  0.4455572  0.9918600  0.9365083    0.00000       Uiso       1.00
      H199          H  0.4549997  0.9855301  0.8940383    0.00000       Uiso       1.00
      H200          H  0.3881099  0.9876604  0.9215727    0.00000       Uiso       1.00
      C559          C  0.4081364  0.9924360  0.9522320    0.00000       Uiso       1.00
      C560          C  0.4208946  0.9948969  0.9674684    0.00000       Uiso       1.00
      C561          C  0.5402136  0.0735965  0.9817372    0.00000       Uiso       1.00
      C562          C  0.5274413  0.0583680  0.9792660    0.00000       Uiso       1.00
      H201          H  0.5390381  0.0834610  0.9721787    0.00000       Uiso       1.00
      H202          H  0.3887141  0.9916940  0.9526633    0.00000       Uiso       1.00
      C563          C  0.4068106  0.9964065  0.9842381    0.00000       Uiso       1.00
      F193          F  0.4199142  0.9983440  0.9951972    0.00000       Uiso       1.00
      F194          F  0.3960443  0.9842860  0.9864389    0.00000       Uiso       1.00
      F195          F  0.3940486  0.0077062  0.9834921    0.00000       Uiso       1.00
      C564          C  0.5121877  0.0562722  0.9630809    0.00000       Uiso       1.00
      F196          F  0.5031663  0.0432721  0.9631810    0.00000       Uiso       1.00
      F197          F  0.5242388  0.0573782  0.9514248    0.00000       Uiso       1.00
      F198          F  0.4978665  0.0666150  0.9626558    0.00000       Uiso       1.00
      C565          C  0.5415160  0.9519457  0.9945501    0.00000       Uiso       1.00
      C566          C  0.5538685  0.9675184  0.9959651    0.00000       Uiso       1.00
      C567          C  0.5409056  0.9828809  0.9981406    0.00000       Uiso       1.00
      C568          C  0.5162450  0.9518082  0.9955515    0.00000       Uiso       1.00
      C569          C  0.5035233  0.9671906  0.9979558    0.00000       Uiso       1.00
      C570          C  0.5154010  0.9831207  0.9993843    0.00000       Uiso       1.00
      H203          H  0.5314706  0.0094267  0.0253538    0.00000       Uiso       1.00
      H204          H  0.4962697  0.9780554  0.0290210    0.00000       Uiso       1.00
      C571          C  0.5426117  0.0475180  0.0059981    0.00000       Uiso       1.00
      C572          C  0.5437430  0.0344525  0.0182049    0.00000       Uiso       1.00
      C573          C  0.5307655  0.0191970  0.0156719    0.00000       Uiso       1.00
      C574          C  0.5284619  0.0451965  0.9913234    0.00000       Uiso       1.00
      C575          C  0.5152733  0.0299459  0.9890364    0.00000       Uiso       1.00
      C576          C  0.5162682  0.0164552  0.0010513    0.00000       Uiso       1.00
      H205          H  0.5509644  0.9946052  0.9983384    0.00000       Uiso       1.00
      H206          H  0.5159233  0.9983727  0.9668763    0.00000       Uiso       1.00
      C577          C  0.4573919  0.0060021  0.0475154    0.00000       Uiso       1.00
      C578          C  0.4562510  0.0182046  0.0344461    0.00000       Uiso       1.00
      C579          C  0.4692295  0.0156707  0.0191917    0.00000       Uiso       1.00
      C580          C  0.4715500  0.9913316  0.0451995    0.00000       Uiso       1.00
      C581          C  0.4847399  0.9890441  0.0299498    0.00000       Uiso       1.00
      C582          C  0.4837350  0.0010533  0.0164542    0.00000       Uiso       1.00
      H207          H  0.4490319  0.9983481  0.9946049    0.00000       Uiso       1.00
      H208          H  0.4840718  0.9668810  0.9983590    0.00000       Uiso       1.00
      C583          C  0.4584765  0.9945504  0.9519420    0.00000       Uiso       1.00
      C584          C  0.4461232  0.9959685  0.9675156    0.00000       Uiso       1.00
      C585          C  0.4590884  0.9981428  0.9828790    0.00000       Uiso       1.00
      C586          C  0.4837488  0.9955521  0.9518046    0.00000       Uiso       1.00
      C587          C  0.4964719  0.9979592  0.9671872    0.00000       Uiso       1.00
      C588          C  0.4845944  0.9993857  0.9831181    0.00000       Uiso       1.00
      H209          H  0.4685120  0.0253444  0.0094132    0.00000       Uiso       1.00
      H210          H  0.5037539  0.0290112  0.9780415    0.00000       Uiso       1.00
      C589          C  0.4725795  0.9792790  0.0583755    0.00000       Uiso       1.00
      C590          C  0.4598047  0.9817508  0.0736029    0.00000       Uiso       1.00
      C591          C  0.4423802  0.0329175  0.0369891    0.00000       Uiso       1.00
      C592          C  0.4298843  0.0355175  0.0523018    0.00000       Uiso       1.00
      C593          C  0.5790974  0.9674731  0.9948885    0.00000       Uiso       1.00
      C594          C  0.5918570  0.9522374  0.9924256    0.00000       Uiso       1.00
      C595          C  0.5040754  0.9362437  0.9938602    0.00000       Uiso       1.00
      C596          C  0.5167930  0.9210392  0.9911543    0.00000       Uiso       1.00
      C597          C  0.4959176  0.9938580  0.9362406    0.00000       Uiso       1.00
      C598          C  0.4831996  0.9911487  0.9210376    0.00000       Uiso       1.00
      C599          C  0.5576066  0.0369995  0.0329218    0.00000       Uiso       1.00
      C600          C  0.5701033  0.0523136  0.0355189    0.00000       Uiso       1.00
      H211          H  0.5586817  0.0271627  0.0425259    0.00000       Uiso       1.00
      H212          H  0.4412975  0.0425183  0.0271497    0.00000       Uiso       1.00
      H213          H  0.4609868  0.9721965  0.0834713    0.00000       Uiso       1.00
      H214          H  0.4846349  0.9358191  0.9945205    0.00000       Uiso       1.00
      H215          H  0.6112805  0.9526680  0.9916773    0.00000       Uiso       1.00
      H216          H  0.5153579  0.9945204  0.9358187    0.00000       Uiso       1.00
      C601          C  0.5931861  0.9842417  0.9963911    0.00000       Uiso       1.00
      F199          F  0.6132399  0.9815551  0.9952034    0.00000       Uiso       1.00
      F200          F  0.5893694  0.9903244  0.0092522    0.00000       Uiso       1.00
      F201          F  0.5873796  0.9932585  0.9858297    0.00000       Uiso       1.00
      C602          C  0.5026666  0.9043254  0.9892673    0.00000       Uiso       1.00
      F202          F  0.4826164  0.9070112  0.9904859    0.00000       Uiso       1.00
      F203          F  0.5084211  0.8950731  0.9996375    0.00000       Uiso       1.00
      F204          F  0.5065051  0.8985195  0.9762816    0.00000       Uiso       1.00
      C603          C  0.4973301  0.9892586  0.9043262    0.00000       Uiso       1.00
      F205          F  0.5173798  0.9904766  0.9070147    0.00000       Uiso       1.00
      F206          F  0.4915795  0.9996279  0.8950716    0.00000       Uiso       1.00
      F207          F  0.4934914  0.9762724  0.8985215    0.00000       Uiso       1.00
      C604          C  0.5849168  0.0545513  0.0518884    0.00000       Uiso       1.00
      F208          F  0.5834417  0.0425746  0.0599615    0.00000       Uiso       1.00
      F209          F  0.5777320  0.0658673  0.0593610    0.00000       Uiso       1.00
      F210          F  0.6045424  0.0568685  0.0484603    0.00000       Uiso       1.00
      C605          C  0.4878457  0.9630994  0.0562845    0.00000       Uiso       1.00
      F211          F  0.4863465  0.9550096  0.0682485    0.00000       Uiso       1.00
      F212          F  0.5074240  0.9667751  0.0541540    0.00000       Uiso       1.00
      F213          F  0.4810674  0.9555363  0.0449032    0.00000       Uiso       1.00
      C606          C  0.4150632  0.0518840  0.0545343    0.00000       Uiso       1.00
      F214          F  0.4165347  0.0599539  0.0425552    0.00000       Uiso       1.00
      F215          F  0.4222443  0.0593617  0.0658483    0.00000       Uiso       1.00
      F216          F  0.3954391  0.0484517  0.0568520    0.00000       Uiso       1.00
      C607          C  0.6399391  0.6864868  0.5293812    0.00000       Uiso       1.00
      C608          C  0.6400692  0.7042606  0.5283791    0.00000       Uiso       1.00
      C609          C  0.6236396  0.7130423  0.5180901    0.00000       Uiso       1.00
      C610          C  0.6232601  0.7308628  0.5179097    0.00000       Uiso       1.00
      C611          C  0.6384241  0.7403342  0.5287576    0.00000       Uiso       1.00
      C612          C  0.6545947  0.7312116  0.5392169    0.00000       Uiso       1.00
      C613          C  0.6569202  0.7133806  0.5383381    0.00000       Uiso       1.00
        O1          O  0.6240751  0.6757130  0.5210018    0.00000       Uiso       1.00
      H217          H  0.6110817  0.7060059  0.5101625    0.00000       Uiso       1.00
      H218          H  0.6107886  0.7370224  0.5093283    0.00000       Uiso       1.00
      H219          H  0.6643989  0.7378996  0.5489025    0.00000       Uiso       1.00
      C614          C  0.7841620  0.7414344  0.6014392    0.00000       Uiso       1.00
      C615          C  0.7673972  0.7321125  0.5919771    0.00000       Uiso       1.00
      C616          C  0.7688934  0.7143611  0.5906615    0.00000       Uiso       1.00
      C617          C  0.7512473  0.7051731  0.5818536    0.00000       Uiso       1.00
      C618          C  0.7309295  0.7134456  0.5749615    0.00000       Uiso       1.00
      C619          C  0.7296121  0.7313246  0.5766562    0.00000       Uiso       1.00
      C620          C  0.7483293  0.7409603  0.5839646    0.00000       Uiso       1.00
        O2          O  0.8032948  0.7346949  0.6105866    0.00000       Uiso       1.00
      H220          H  0.7838451  0.7076315  0.5965025    0.00000       Uiso       1.00
      H221          H  0.7536620  0.6915659  0.5807258    0.00000       Uiso       1.00
      H222          H  0.7132469  0.7377333  0.5732552    0.00000       Uiso       1.00
      C621          C  0.6571116  0.8220903  0.5379318    0.00000       Uiso       1.00
      C622          C  0.6759027  0.8136387  0.5462319    0.00000       Uiso       1.00
      C623          C  0.6949825  0.8226082  0.5536792    0.00000       Uiso       1.00
      C624          C  0.7129983  0.8139785  0.5626767    0.00000       Uiso       1.00
      C625          C  0.7116259  0.7962365  0.5652545    0.00000       Uiso       1.00
      C626          C  0.6920388  0.7874805  0.5578422    0.00000       Uiso       1.00
      C627          C  0.6750671  0.7956744  0.5473411    0.00000       Uiso       1.00
        O3          O  0.6547197  0.8395988  0.5362921    0.00000       Uiso       1.00
      H223          H  0.6958588  0.8363707  0.5524801    0.00000       Uiso       1.00
      H224          H  0.7277413  0.8214267  0.5676979    0.00000       Uiso       1.00
      H225          H  0.6890470  0.7743900  0.5611222    0.00000       Uiso       1.00
      C628          C  0.6380422  0.8134032  0.5310954    0.00000       Uiso       1.00
      C629          C  0.6371564  0.7956117  0.5311469    0.00000       Uiso       1.00
      C630          C  0.6178964  0.7867695  0.5237761    0.00000       Uiso       1.00
      C631          C  0.6177868  0.7689499  0.5233879    0.00000       Uiso       1.00
      C632          C  0.6376200  0.7595561  0.5295006    0.00000       Uiso       1.00
      C633          C  0.6570842  0.7687489  0.5365255    0.00000       Uiso       1.00
      C634          C  0.6564474  0.7865467  0.5386288    0.00000       Uiso       1.00
        O4          O  0.6209016  0.8241566  0.5240633    0.00000       Uiso       1.00
      H226          H  0.6028575  0.7937505  0.5183636    0.00000       Uiso       1.00
      H227          H  0.6021037  0.7627338  0.5181257    0.00000       Uiso       1.00
      H228          H  0.6734644  0.7621470  0.5394891    0.00000       Uiso       1.00
      C635          C  0.7823343  0.7587354  0.6031883    0.00000       Uiso       1.00
      C636          C  0.7645034  0.7680478  0.5947478    0.00000       Uiso       1.00
      C637          C  0.7630593  0.7857885  0.5962402    0.00000       Uiso       1.00
      C638          C  0.7456359  0.7949436  0.5871812    0.00000       Uiso       1.00
      C639          C  0.7301034  0.7866597  0.5756456    0.00000       Uiso       1.00
      C640          C  0.7322477  0.7688147  0.5740520    0.00000       Uiso       1.00
      C641          C  0.7479381  0.7591897  0.5843296    0.00000       Uiso       1.00
        O5          O  0.8001232  0.7654461  0.6136150    0.00000       Uiso       1.00
      H229          H  0.7754620  0.7925298  0.6045340    0.00000       Uiso       1.00
      H230          H  0.7447062  0.8085284  0.5892646    0.00000       Uiso       1.00
      H231          H  0.7226756  0.7624304  0.5640545    0.00000       Uiso       1.00
      C642          C  0.6554918  0.6778778  0.5398227    0.00000       Uiso       1.00
      C643          C  0.6732320  0.6863599  0.5491818    0.00000       Uiso       1.00
      C644          C  0.6894823  0.6774639  0.5595156    0.00000       Uiso       1.00
      C645          C  0.7076998  0.6861248  0.5682744    0.00000       Uiso       1.00
      C646          C  0.7109463  0.7038038  0.5661392    0.00000       Uiso       1.00
      C647          C  0.6946836  0.7124550  0.5553570    0.00000       Uiso       1.00
      C648          C  0.6747835  0.7042816  0.5478340    0.00000       Uiso       1.00
        O6          O  0.6517974  0.6604127  0.5394847    0.00000       Uiso       1.00
      H232          H  0.6879300  0.6637438  0.5608236    0.00000       Uiso       1.00
      H233          H  0.7192085  0.6787505  0.5765637    0.00000       Uiso       1.00
      H234          H  0.6982901  0.7254363  0.5519593    0.00000       Uiso       1.00
        B1          B  0.6317837  0.6591869  0.5275120    0.00000       Uiso       1.00
        B2          B  0.8133076  0.7500637  0.6182599    0.00000       Uiso       1.00
        B3          B  0.6316648  0.8407599  0.5274563    0.00000       Uiso       1.00
      C649          C  0.3600551  0.5293801  0.6864827    0.00000       Uiso       1.00
      C650          C  0.3599250  0.5283781  0.7042565    0.00000       Uiso       1.00
      C651          C  0.3763546  0.5180893  0.7130385    0.00000       Uiso       1.00
      C652          C  0.3767340  0.5179089  0.7308590    0.00000       Uiso       1.00
      C653          C  0.3615700  0.5287565  0.7403301    0.00000       Uiso       1.00
      C654          C  0.3453993  0.5392156  0.7312072    0.00000       Uiso       1.00
      C655          C  0.3430739  0.5383367  0.7133762    0.00000       Uiso       1.00
        O7          O  0.3759192  0.5210010  0.6757092    0.00000       Uiso       1.00
      H235          H  0.3889126  0.5101619  0.7060024    0.00000       Uiso       1.00
      H236          H  0.3892056  0.5093278  0.7370188    0.00000       Uiso       1.00
      H237          H  0.3355951  0.5489010  0.7378951    0.00000       Uiso       1.00
      C656          C  0.2158320  0.6014355  0.7414277    0.00000       Uiso       1.00
      C657          C  0.2325967  0.5919737  0.7321061    0.00000       Uiso       1.00
      C658          C  0.2311006  0.5906580  0.7143546    0.00000       Uiso       1.00
      C659          C  0.2487467  0.5818505  0.7051670    0.00000       Uiso       1.00
      C660          C  0.2690646  0.5749587  0.7134398    0.00000       Uiso       1.00
      C661          C  0.2703820  0.5766534  0.7313188    0.00000       Uiso       1.00
      C662          C  0.2516647  0.5839616  0.7409542    0.00000       Uiso       1.00
        O8          O  0.1966992  0.6105826  0.7346879    0.00000       Uiso       1.00
      H238          H  0.2161489  0.5964988  0.7076248    0.00000       Uiso       1.00
      H239          H  0.2463321  0.5807226  0.6915597    0.00000       Uiso       1.00
      H240          H  0.2867472  0.5732527  0.7377279    0.00000       Uiso       1.00
      C663          C  0.3428823  0.5379304  0.8220859    0.00000       Uiso       1.00
      C664          C  0.3240913  0.5462301  0.8136340    0.00000       Uiso       1.00
      C665          C  0.3050114  0.5536771  0.8226030    0.00000       Uiso       1.00
      C666          C  0.2869956  0.5626743  0.8139731    0.00000       Uiso       1.00
      C667          C  0.2883680  0.5652521  0.7962311    0.00000       Uiso       1.00
      C668          C  0.3079552  0.5578401  0.7874755    0.00000       Uiso       1.00
      C669          C  0.3249269  0.5473394  0.7956697    0.00000       Uiso       1.00
        O9          O  0.3452742  0.5362908  0.8395944    0.00000       Uiso       1.00
      H241          H  0.3041351  0.5524780  0.8363656    0.00000       Uiso       1.00
      H242          H  0.2722526  0.5676953  0.8214210    0.00000       Uiso       1.00
      H243          H  0.3109470  0.5611202  0.7743850    0.00000       Uiso       1.00
      C670          C  0.3619519  0.5310944  0.8133991    0.00000       Uiso       1.00
      C671          C  0.3628376  0.5311459  0.7956077    0.00000       Uiso       1.00
      C672          C  0.3820976  0.5237754  0.7867658    0.00000       Uiso       1.00
      C673          C  0.3822073  0.5233873  0.7689463    0.00000       Uiso       1.00
      C674          C  0.3623741  0.5294996  0.7595520    0.00000       Uiso       1.00
      C675          C  0.3429098  0.5365241  0.7687445    0.00000       Uiso       1.00
      C676          C  0.3435466  0.5386274  0.7865423    0.00000       Uiso       1.00
       O10          O  0.3790923  0.5240626  0.8241529    0.00000       Uiso       1.00
      H244          H  0.3971366  0.5183632  0.7937471    0.00000       Uiso       1.00
      H245          H  0.3978904  0.5181253  0.7627304    0.00000       Uiso       1.00
      H246          H  0.3265296  0.5394874  0.7621423    0.00000       Uiso       1.00
      C677          C  0.2176595  0.6031846  0.7587287    0.00000       Uiso       1.00
      C678          C  0.2354905  0.5947444  0.7680414    0.00000       Uiso       1.00
      C679          C  0.2369346  0.5962368  0.7857822    0.00000       Uiso       1.00
      C680          C  0.2543580  0.5871781  0.7949376    0.00000       Uiso       1.00
      C681          C  0.2698905  0.5756428  0.7866540    0.00000       Uiso       1.00
      C682          C  0.2677464  0.5740493  0.7688090    0.00000       Uiso       1.00
      C683          C  0.2520558  0.5843266  0.7591836    0.00000       Uiso       1.00
       O11          O  0.1998707  0.6136109  0.7654391    0.00000       Uiso       1.00
      H247          H  0.2245319  0.6045304  0.7925232    0.00000       Uiso       1.00
      H248          H  0.2552876  0.5892616  0.8085223    0.00000       Uiso       1.00
      H249          H  0.2773185  0.5640519  0.7624248    0.00000       Uiso       1.00
      C684          C  0.3445024  0.5398213  0.6778734    0.00000       Uiso       1.00
      C685          C  0.3267621  0.5491802  0.6863552    0.00000       Uiso       1.00
      C686          C  0.3105119  0.5595136  0.6774589    0.00000       Uiso       1.00
      C687          C  0.2922943  0.5682721  0.6861195    0.00000       Uiso       1.00
      C688          C  0.2890478  0.5661368  0.7037984    0.00000       Uiso       1.00
      C689          C  0.3053106  0.5553549  0.7124499    0.00000       Uiso       1.00
      C690          C  0.3252106  0.5478323  0.7042769    0.00000       Uiso       1.00
       O12          O  0.3481969  0.5394834  0.6604084    0.00000       Uiso       1.00
      H250          H  0.3120642  0.5608216  0.6637388    0.00000       Uiso       1.00
      H251          H  0.2807857  0.5765611  0.6787449    0.00000       Uiso       1.00
      H252          H  0.3017040  0.5519571  0.7254311    0.00000       Uiso       1.00
        B4          B  0.3682106  0.5275110  0.6591829    0.00000       Uiso       1.00
        B5          B  0.1866863  0.6182556  0.7500563    0.00000       Uiso       1.00
        B6          B  0.3683291  0.5274554  0.8407559    0.00000       Uiso       1.00
      C691          C  0.3600556  0.4706219  0.3135164    0.00000       Uiso       1.00
      C692          C  0.3599255  0.4716240  0.2957426    0.00000       Uiso       1.00
      C693          C  0.3763551  0.4819130  0.2869609    0.00000       Uiso       1.00
      C694          C  0.3767345  0.4820935  0.2691404    0.00000       Uiso       1.00
      C695          C  0.3615705  0.4712456  0.2596691    0.00000       Uiso       1.00
      C696          C  0.3453999  0.4607862  0.2687916    0.00000       Uiso       1.00
      C697          C  0.3430745  0.4616651  0.2866227    0.00000       Uiso       1.00
       O13          O  0.3759196  0.4790013  0.3242902    0.00000       Uiso       1.00
      H253          H  0.3889130  0.4898407  0.2939973    0.00000       Uiso       1.00
      H254          H  0.3892061  0.4906748  0.2629808    0.00000       Uiso       1.00
      H255          H  0.3355957  0.4511006  0.2621036    0.00000       Uiso       1.00
      C698          C  0.2158327  0.3985639  0.2585688    0.00000       Uiso       1.00
      C699          C  0.2325974  0.4080260  0.2678907    0.00000       Uiso       1.00
      C700          C  0.2311012  0.4093417  0.2856421    0.00000       Uiso       1.00
      C701          C  0.2487473  0.4181495  0.2948301    0.00000       Uiso       1.00
      C702          C  0.2690652  0.4250416  0.2865576    0.00000       Uiso       1.00
      C703          C  0.2703826  0.4233470  0.2686786    0.00000       Uiso       1.00
      C704          C  0.2516654  0.4160385  0.2590429    0.00000       Uiso       1.00
       O14          O  0.1966999  0.3894165  0.2653083    0.00000       Uiso       1.00
      H256          H  0.2161496  0.4035006  0.2923717    0.00000       Uiso       1.00
      H257          H  0.2463327  0.4192773  0.3084373    0.00000       Uiso       1.00
      H258          H  0.2867478  0.4267480  0.2622699    0.00000       Uiso       1.00
      C705          C  0.3428831  0.4620714  0.1779129    0.00000       Uiso       1.00
      C706          C  0.3240920  0.4537713  0.1863645    0.00000       Uiso       1.00
      C707          C  0.3050122  0.4463240  0.1773951    0.00000       Uiso       1.00
      C708          C  0.2869963  0.4373264  0.1860247    0.00000       Uiso       1.00
      C709          C  0.2883688  0.4347486  0.2037667    0.00000       Uiso       1.00
      C710          C  0.3079559  0.4421610  0.2125227    0.00000       Uiso       1.00
      C711          C  0.3249276  0.4526620  0.2043288    0.00000       Uiso       1.00
       O15          O  0.3452750  0.4637110  0.1604045    0.00000       Uiso       1.00
      H259          H  0.3041359  0.4475230  0.1636325    0.00000       Uiso       1.00
      H260          H  0.2722534  0.4323052  0.1785765    0.00000       Uiso       1.00
      H261          H  0.3109477  0.4388810  0.2256132    0.00000       Uiso       1.00
      C712          C  0.3619525  0.4689077  0.1866001    0.00000       Uiso       1.00
      C713          C  0.3628383  0.4688562  0.2043915    0.00000       Uiso       1.00
      C714          C  0.3820983  0.4762271  0.2132337    0.00000       Uiso       1.00
      C715          C  0.3822079  0.4766152  0.2310533    0.00000       Uiso       1.00
      C716          C  0.3623747  0.4705025  0.2404471    0.00000       Uiso       1.00
      C717          C  0.3429104  0.4634776  0.2312543    0.00000       Uiso       1.00
      C718          C  0.3435473  0.4613743  0.2134566    0.00000       Uiso       1.00
       O16          O  0.3790930  0.4759398  0.1758466    0.00000       Uiso       1.00
      H262          H  0.3971372  0.4816396  0.2062527    0.00000       Uiso       1.00
      H263          H  0.3978910  0.4818775  0.2372694    0.00000       Uiso       1.00
      H264          H  0.3265303  0.4605141  0.2378562    0.00000       Uiso       1.00
      C719          C  0.2176603  0.3968149  0.2412678    0.00000       Uiso       1.00
      C720          C  0.2354912  0.4052554  0.2319554    0.00000       Uiso       1.00
      C721          C  0.2369354  0.4037630  0.2142147    0.00000       Uiso       1.00
      C722          C  0.2543588  0.4128219  0.2050596    0.00000       Uiso       1.00
      C723          C  0.2698913  0.4243576  0.2133435    0.00000       Uiso       1.00
      C724          C  0.2677471  0.4259511  0.2311885    0.00000       Uiso       1.00
      C725          C  0.2520565  0.4156735  0.2408136    0.00000       Uiso       1.00
       O17          O  0.1998715  0.3863882  0.2345571    0.00000       Uiso       1.00
      H265          H  0.2245327  0.3954691  0.2074734    0.00000       Uiso       1.00
      H266          H  0.2552885  0.4107385  0.1914749    0.00000       Uiso       1.00
      H267          H  0.2773191  0.4359486  0.2375728    0.00000       Uiso       1.00
      C726          C  0.3445028  0.4601805  0.3221254    0.00000       Uiso       1.00
      C727          C  0.3267626  0.4508213  0.3136433    0.00000       Uiso       1.00
      C728          C  0.3105124  0.4404875  0.3225393    0.00000       Uiso       1.00
      C729          C  0.2922949  0.4317287  0.3138784    0.00000       Uiso       1.00
      C730          C  0.2890483  0.4338639  0.2961994    0.00000       Uiso       1.00
      C731          C  0.3053111  0.4446462  0.2875482    0.00000       Uiso       1.00
      C732          C  0.3252112  0.4521691  0.2957216    0.00000       Uiso       1.00
       O18          O  0.3481973  0.4605185  0.3395905    0.00000       Uiso       1.00
      H268          H  0.3120647  0.4391796  0.3362594    0.00000       Uiso       1.00
      H269          H  0.2807862  0.4234395  0.3212528    0.00000       Uiso       1.00
      H270          H  0.3017046  0.4480439  0.2745669    0.00000       Uiso       1.00
        B7          B  0.3682110  0.4724912  0.3408163    0.00000       Uiso       1.00
        B8          B  0.1866870  0.3817433  0.2499396    0.00000       Uiso       1.00
        B9          B  0.3683299  0.4725468  0.1592434    0.00000       Uiso       1.00
      C733          C  0.6399396  0.3135203  0.4706229    0.00000       Uiso       1.00
      C734          C  0.6400697  0.2957465  0.4716251    0.00000       Uiso       1.00
      C735          C  0.6236402  0.2869644  0.4819138    0.00000       Uiso       1.00
      C736          C  0.6232607  0.2691439  0.4820942    0.00000       Uiso       1.00
      C737          C  0.6384248  0.2596729  0.4712466    0.00000       Uiso       1.00
      C738          C  0.6545954  0.2687957  0.4607875    0.00000       Uiso       1.00
      C739          C  0.6569207  0.2866268  0.4616665    0.00000       Uiso       1.00
       O19          O  0.6240755  0.3242937  0.4790021    0.00000       Uiso       1.00
      H271          H  0.6110821  0.2940006  0.4898412    0.00000       Uiso       1.00
      H272          H  0.6107891  0.2629841  0.4906753    0.00000       Uiso       1.00
      H273          H  0.6643996  0.2621079  0.4511021    0.00000       Uiso       1.00
      C740          C  0.7841628  0.2585753  0.3985676    0.00000       Uiso       1.00
      C741          C  0.7673980  0.2678969  0.4080294    0.00000       Uiso       1.00
      C742          C  0.7688941  0.2856483  0.4093451    0.00000       Uiso       1.00
      C743          C  0.7512480  0.2948359  0.4181526    0.00000       Uiso       1.00
      C744          C  0.7309301  0.2865631  0.4250444    0.00000       Uiso       1.00
      C745          C  0.7296127  0.2686841  0.4233497    0.00000       Uiso       1.00
      C746          C  0.7483300  0.2590487  0.4160416    0.00000       Uiso       1.00
       O20          O  0.8032956  0.2653151  0.3894205    0.00000       Uiso       1.00
      H274          H  0.7838458  0.2923782  0.4035043    0.00000       Uiso       1.00
      H275          H  0.7536626  0.3084432  0.4192804    0.00000       Uiso       1.00
      H276          H  0.7132475  0.2622751  0.4267504    0.00000       Uiso       1.00
      C747          C  0.6571124  0.1779171  0.4620728    0.00000       Uiso       1.00
      C748          C  0.6759035  0.1863690  0.4537730    0.00000       Uiso       1.00
      C749          C  0.6949833  0.1773999  0.4463260    0.00000       Uiso       1.00
      C750          C  0.7129992  0.1860299  0.4373288    0.00000       Uiso       1.00
      C751          C  0.7116267  0.2037719  0.4347510    0.00000       Uiso       1.00
      C752          C  0.6920395  0.2125275  0.4421630    0.00000       Uiso       1.00
      C753          C  0.6750678  0.2043332  0.4526637    0.00000       Uiso       1.00
       O21          O  0.6547205  0.1604086  0.4637123    0.00000       Uiso       1.00
      H277          H  0.6958597  0.1636374  0.4475251    0.00000       Uiso       1.00
      H278          H  0.7277421  0.1785819  0.4323079    0.00000       Uiso       1.00
      H279          H  0.6890478  0.2256179  0.4388829    0.00000       Uiso       1.00
      C754          C  0.6380429  0.1866038  0.4689088    0.00000       Uiso       1.00
      C755          C  0.6371571  0.2043952  0.4688573    0.00000       Uiso       1.00
      C756          C  0.6178971  0.2132372  0.4762278    0.00000       Uiso       1.00
      C757          C  0.6177874  0.2310567  0.4766158    0.00000       Uiso       1.00
      C758          C  0.6376207  0.2404509  0.4705036    0.00000       Uiso       1.00
      C759          C  0.6570849  0.2312585  0.4634790    0.00000       Uiso       1.00
      C760          C  0.6564481  0.2134607  0.4613757    0.00000       Uiso       1.00
       O22          O  0.6209024  0.1758501  0.4759405    0.00000       Uiso       1.00
      H280          H  0.6028582  0.2062559  0.4816400    0.00000       Uiso       1.00
      H281          H  0.6021043  0.2372726  0.4818778    0.00000       Uiso       1.00
      H282          H  0.6734651  0.2378607  0.4605157    0.00000       Uiso       1.00
      C761          C  0.7823352  0.2412742  0.3968185    0.00000       Uiso       1.00
      C762          C  0.7645043  0.2319615  0.4052587    0.00000       Uiso       1.00
      C763          C  0.7630602  0.2142208  0.4037663    0.00000       Uiso       1.00
      C764          C  0.7456367  0.2050654  0.4128250    0.00000       Uiso       1.00
      C765          C  0.7301042  0.2133490  0.4243603    0.00000       Uiso       1.00
      C766          C  0.7322484  0.2311940  0.4259538    0.00000       Uiso       1.00
      C767          C  0.7479389  0.2408194  0.4156765    0.00000       Uiso       1.00
       O23          O  0.8001240  0.2345638  0.3863922    0.00000       Uiso       1.00
      H283          H  0.7754629  0.2074798  0.3954727    0.00000       Uiso       1.00
      H284          H  0.7447071  0.1914806  0.4107415    0.00000       Uiso       1.00
      H285          H  0.7226762  0.2375781  0.4359512    0.00000       Uiso       1.00
      C768          C  0.6554924  0.3221295  0.4601818    0.00000       Uiso       1.00
      C769          C  0.6732326  0.3136478  0.4508230    0.00000       Uiso       1.00
      C770          C  0.6894829  0.3225440  0.4404895    0.00000       Uiso       1.00
      C771          C  0.7077004  0.3138835  0.4317310    0.00000       Uiso       1.00
      C772          C  0.7109470  0.2962046  0.4338663    0.00000       Uiso       1.00
      C773          C  0.6946841  0.2875530  0.4446482    0.00000       Uiso       1.00
      C774          C  0.6747841  0.2957261  0.4521709    0.00000       Uiso       1.00
       O24          O  0.6517978  0.3395946  0.4605198    0.00000       Uiso       1.00
      H286          H  0.6879305  0.3362642  0.4391815    0.00000       Uiso       1.00
      H287          H  0.7192091  0.3212581  0.4234420    0.00000       Uiso       1.00
      H288          H  0.6982907  0.2745718  0.4480460    0.00000       Uiso       1.00
       B10          B  0.6317841  0.3408200  0.4724921    0.00000       Uiso       1.00
       B11          B  0.8133085  0.2499466  0.3817475    0.00000       Uiso       1.00
       B12          B  0.6316656  0.1592470  0.4725477    0.00000       Uiso       1.00
      C775          C  0.7841348  0.7585861  0.8985265    0.00000       Uiso       1.00
      C776          C  0.7673630  0.7679089  0.9079794    0.00000       Uiso       1.00
      C777          C  0.7688701  0.7856591  0.9093000    0.00000       Uiso       1.00
      C778          C  0.7512299  0.7948491  0.9181106    0.00000       Uiso       1.00
      C779          C  0.7309110  0.7865786  0.9250041    0.00000       Uiso       1.00
      C780          C  0.7295744  0.7687023  0.9232984    0.00000       Uiso       1.00
      C781          C  0.7482845  0.7590637  0.9159852    0.00000       Uiso       1.00
       O25          O  0.8032877  0.7653212  0.8893975    0.00000       Uiso       1.00
      H289          H  0.7838339  0.7923838  0.9034668    0.00000       Uiso       1.00
      H290          H  0.7536515  0.8084553  0.9192452    0.00000       Uiso       1.00
      H291          H  0.7132011  0.7623013  0.9267016    0.00000       Uiso       1.00
      C782          C  0.6571318  0.6779183  0.9620817    0.00000       Uiso       1.00
      C783          C  0.6759155  0.6863709  0.9537696    0.00000       Uiso       1.00
      C784          C  0.6949826  0.6774052  0.9463000    0.00000       Uiso       1.00
      C785          C  0.7129781  0.6860383  0.9372870    0.00000       Uiso       1.00
      C786          C  0.7115973  0.7037795  0.9347103    0.00000       Uiso       1.00
      C787          C  0.6920237  0.7125303  0.9421437    0.00000       Uiso       1.00
      C788          C  0.6750798  0.7043350  0.9526657    0.00000       Uiso       1.00
       O26          O  0.6547242  0.6604084  0.9637046    0.00000       Uiso       1.00
      H292          H  0.6958714  0.6636440  0.9474905    0.00000       Uiso       1.00
      H293          H  0.7277131  0.6785914  0.9322548    0.00000       Uiso       1.00
      H294          H  0.6890156  0.7256176  0.9388658    0.00000       Uiso       1.00
      C789          C  0.6399809  0.8135250  0.9706380    0.00000       Uiso       1.00
      C790          C  0.6401327  0.7957536  0.9716577    0.00000       Uiso       1.00
      C791          C  0.6237163  0.7869745  0.9819586    0.00000       Uiso       1.00
      C792          C  0.6233488  0.7691531  0.9821529    0.00000       Uiso       1.00
      C793          C  0.6385130  0.7596796  0.9713069    0.00000       Uiso       1.00
      C794          C  0.6546810  0.7688015  0.9608417    0.00000       Uiso       1.00
      C795          C  0.6569877  0.7866349  0.9617033    0.00000       Uiso       1.00
       O27          O  0.6241120  0.8242947  0.9790159    0.00000       Uiso       1.00
      H295          H  0.6111528  0.7940171  0.9898773    0.00000       Uiso       1.00
      H296          H  0.6108796  0.7629949  0.9907377    0.00000       Uiso       1.00
      H297          H  0.6644914  0.7621122  0.9511606    0.00000       Uiso       1.00
      C796          C  0.6555041  0.8221344  0.9601781    0.00000       Uiso       1.00
      C797          C  0.6732439  0.8136560  0.9508139    0.00000       Uiso       1.00
      C798          C  0.6894566  0.8225505  0.9404483    0.00000       Uiso       1.00
      C799          C  0.7076644  0.8138897  0.9316779    0.00000       Uiso       1.00
      C800          C  0.7109460  0.7962199  0.9338413    0.00000       Uiso       1.00
      C801          C  0.6947286  0.7875715  0.9446573    0.00000       Uiso       1.00
      C802          C  0.6748275  0.7957371  0.9521859    0.00000       Uiso       1.00
       O28          O  0.6517823  0.8395974  0.9605005    0.00000       Uiso       1.00
      H298          H  0.6878879  0.8362668  0.9391256    0.00000       Uiso       1.00
      H299          H  0.7191425  0.8212544  0.9233596    0.00000       Uiso       1.00
      H300          H  0.6983672  0.7745988  0.9480646    0.00000       Uiso       1.00
      C803          C  0.6380817  0.6866079  0.9689437    0.00000       Uiso       1.00
      C804          C  0.6372095  0.7043998  0.9689046    0.00000       Uiso       1.00
      C805          C  0.6179763  0.7132458  0.9763065    0.00000       Uiso       1.00
      C806          C  0.6178799  0.7310646  0.9767019    0.00000       Uiso       1.00
      C807          C  0.6376991  0.7404569  0.9705617    0.00000       Uiso       1.00
      C808          C  0.6571376  0.7312592  0.9635082    0.00000       Uiso       1.00
      C809          C  0.6564854  0.7134626  0.9614022    0.00000       Uiso       1.00
       O29          O  0.6209446  0.6758553  0.9759800    0.00000       Uiso       1.00
      H301          H  0.6029414  0.7062681  0.9817315    0.00000       Uiso       1.00
      H302          H  0.6022117  0.7372800  0.9819877    0.00000       Uiso       1.00
      H303          H  0.6735193  0.7378520  0.9605290    0.00000       Uiso       1.00
      C810          C  0.7823026  0.7412845  0.8967777    0.00000       Uiso       1.00
      C811          C  0.7644618  0.7319757  0.9052091    0.00000       Uiso       1.00
      C812          C  0.7630242  0.7142357  0.9037194    0.00000       Uiso       1.00
      C813          C  0.7456048  0.7050778  0.9127790    0.00000       Uiso       1.00
      C814          C  0.7300611  0.7133615  0.9243091    0.00000       Uiso       1.00
      C815          C  0.7321918  0.7312096  0.9258946    0.00000       Uiso       1.00
      C816          C  0.7478878  0.7408346  0.9156195    0.00000       Uiso       1.00
       O30          O  0.8001057  0.7345684  0.8863671    0.00000       Uiso       1.00
      H304          H  0.7754364  0.7074980  0.8954293    0.00000       Uiso       1.00
      H305          H  0.7446902  0.6914917  0.9107015    0.00000       Uiso       1.00
      H306          H  0.7226083  0.7375958  0.9358872    0.00000       Uiso       1.00
       B13          B  0.8133039  0.7499488  0.8817338    0.00000       Uiso       1.00
       B14          B  0.6316824  0.6592495  0.9725585    0.00000       Uiso       1.00
       B15          B  0.6317862  0.8408207  0.9724871    0.00000       Uiso       1.00
      C817          C  0.2158589  0.8985321  0.7585886    0.00000       Uiso       1.00
      C818          C  0.2326306  0.9079852  0.7679117    0.00000       Uiso       1.00
      C819          C  0.2311235  0.9093058  0.7856618    0.00000       Uiso       1.00
      C820          C  0.2487636  0.9181167  0.7948521    0.00000       Uiso       1.00
      C821          C  0.2690825  0.9250106  0.7865820    0.00000       Uiso       1.00
      C822          C  0.2704191  0.9233050  0.7687058    0.00000       Uiso       1.00
      C823          C  0.2517091  0.9159914  0.7590668    0.00000       Uiso       1.00
       O31          O  0.1967059  0.8894027  0.7653233    0.00000       Uiso       1.00
      H307          H  0.2161597  0.9034723  0.7923863    0.00000       Uiso       1.00
      H308          H  0.2463421  0.9192514  0.8084584    0.00000       Uiso       1.00
      H309          H  0.2867925  0.9267085  0.7623050    0.00000       Uiso       1.00
      C824          C  0.3428619  0.9620896  0.6779231    0.00000       Uiso       1.00
      C825          C  0.3240782  0.9537771  0.6863754    0.00000       Uiso       1.00
      C826          C  0.3050111  0.9463071  0.6774093    0.00000       Uiso       1.00
      C827          C  0.2870157  0.9372939  0.6860421    0.00000       Uiso       1.00
      C828          C  0.2883964  0.9347172  0.7037833    0.00000       Uiso       1.00
      C829          C  0.3079700  0.9421508  0.7125344    0.00000       Uiso       1.00
      C830          C  0.3249139  0.9526733  0.7043395    0.00000       Uiso       1.00
       O32          O  0.3452695  0.9637125  0.6604133    0.00000       Uiso       1.00
      H310          H  0.3041223  0.9474977  0.6636481    0.00000       Uiso       1.00
      H311          H  0.2722806  0.9322614  0.6785949    0.00000       Uiso       1.00
      H312          H  0.3109780  0.9388732  0.7256219    0.00000       Uiso       1.00
      C831          C  0.3600125  0.9706462  0.8135301    0.00000       Uiso       1.00
      C832          C  0.3598606  0.9716659  0.7957587    0.00000       Uiso       1.00
      C833          C  0.3762771  0.9819670  0.7869800    0.00000       Uiso       1.00
      C834          C  0.3766447  0.9821614  0.7691585    0.00000       Uiso       1.00
      C835          C  0.3614805  0.9713151  0.7596847    0.00000       Uiso       1.00
      C836          C  0.3453126  0.9608496  0.7688063    0.00000       Uiso       1.00
      C837          C  0.3430058  0.9617112  0.7866396    0.00000       Uiso       1.00
       O33          O  0.3758813  0.9790245  0.8243002    0.00000       Uiso       1.00
      H313          H  0.3888406  0.9898861  0.7940227    0.00000       Uiso       1.00
      H314          H  0.3891139  0.9907464  0.7630007    0.00000       Uiso       1.00
      H315          H  0.3355021  0.9511683  0.7621168    0.00000       Uiso       1.00
      C838          C  0.3444894  0.9601860  0.8221393    0.00000       Uiso       1.00
      C839          C  0.3267495  0.9508214  0.8136605    0.00000       Uiso       1.00
      C840          C  0.3105367  0.9404556  0.8225546    0.00000       Uiso       1.00
      C841          C  0.2923291  0.9316850  0.8138936    0.00000       Uiso       1.00
      C842          C  0.2890475  0.9338483  0.7962237    0.00000       Uiso       1.00
      C843          C  0.3052649  0.9446644  0.7875757    0.00000       Uiso       1.00
      C844          C  0.3251660  0.9521934  0.7957415    0.00000       Uiso       1.00
       O34          O  0.3482110  0.9605085  0.8396022    0.00000       Uiso       1.00
      H316          H  0.3121055  0.9391329  0.8362709    0.00000       Uiso       1.00
      H317          H  0.2808509  0.9233664  0.8212581    0.00000       Uiso       1.00
      H318          H  0.3016263  0.9480718  0.7746029    0.00000       Uiso       1.00
      C845          C  0.3619120  0.9689519  0.6866130    0.00000       Uiso       1.00
      C846          C  0.3627841  0.9689129  0.7044050    0.00000       Uiso       1.00
      C847          C  0.3820173  0.9763151  0.7132514    0.00000       Uiso       1.00
      C848          C  0.3821137  0.9767106  0.7310701    0.00000       Uiso       1.00
      C849          C  0.3622944  0.9705699  0.7404620    0.00000       Uiso       1.00
      C850          C  0.3428560  0.9635161  0.7312640    0.00000       Uiso       1.00
      C851          C  0.3435082  0.9614100  0.7134674    0.00000       Uiso       1.00
       O35          O  0.3790490  0.9759885  0.6758608    0.00000       Uiso       1.00
      H319          H  0.3970522  0.9817404  0.7062739    0.00000       Uiso       1.00
      H320          H  0.3977819  0.9819965  0.7372857    0.00000       Uiso       1.00
      H321          H  0.3264742  0.9605365  0.7378565    0.00000       Uiso       1.00
      C852          C  0.2176911  0.8967832  0.7412871    0.00000       Uiso       1.00
      C853          C  0.2355320  0.9052150  0.7319785    0.00000       Uiso       1.00
      C854          C  0.2369695  0.9037253  0.7142386    0.00000       Uiso       1.00
      C855          C  0.2543889  0.9127852  0.7050810    0.00000       Uiso       1.00
      C856          C  0.2699326  0.9243158  0.7133650    0.00000       Uiso       1.00
      C857          C  0.2678019  0.9259011  0.7312131    0.00000       Uiso       1.00
      C858          C  0.2521058  0.9156257  0.7408378    0.00000       Uiso       1.00
       O36          O  0.1998880  0.8863723  0.7345706    0.00000       Uiso       1.00
      H322          H  0.2245573  0.8954350  0.7075006    0.00000       Uiso       1.00
      H323          H  0.2553035  0.9107078  0.6914949    0.00000       Uiso       1.00
      H324          H  0.2773853  0.9358938  0.7375994    0.00000       Uiso       1.00
       B16          B  0.1866898  0.8817388  0.7499508    0.00000       Uiso       1.00
       B17          B  0.3683113  0.9725670  0.6592548    0.00000       Uiso       1.00
       B18          B  0.3682071  0.9724954  0.8408261    0.00000       Uiso       1.00
      C859          C  0.3428939  0.0379608  0.3220971    0.00000       Uiso       1.00
      C860          C  0.3241180  0.0462814  0.3136460    0.00000       Uiso       1.00
      C861          C  0.3050472  0.0537425  0.3226141    0.00000       Uiso       1.00
      C862          C  0.2870462  0.0627521  0.3139836    0.00000       Uiso       1.00
      C863          C  0.2884228  0.0653296  0.2962422    0.00000       Uiso       1.00
      C864          C  0.3080048  0.0579127  0.2874888    0.00000       Uiso       1.00
      C865          C  0.3249569  0.0473952  0.2956813    0.00000       Uiso       1.00
       O37          O  0.3452882  0.0363163  0.3396056    0.00000       Uiso       1.00
      H325          H  0.3041559  0.0525396  0.3363750    0.00000       Uiso       1.00
      H326          H  0.2723053  0.0677770  0.3214301    0.00000       Uiso       1.00
      H327          H  0.3110023  0.0611973  0.2744001    0.00000       Uiso       1.00
      C866          C  0.3600044  0.0293509  0.1864843    0.00000       Uiso       1.00
      C867          C  0.3598642  0.0283414  0.2042585    0.00000       Uiso       1.00
      C868          C  0.3762999  0.0180600  0.2130441    0.00000       Uiso       1.00
      C869          C  0.3766800  0.0178853  0.2308649    0.00000       Uiso       1.00
      C870          C  0.3615154  0.0287344  0.2403334    0.00000       Uiso       1.00
      C871          C  0.3453310  0.0391798  0.2312051    0.00000       Uiso       1.00
      C872          C  0.3430038  0.0382931  0.2133745    0.00000       Uiso       1.00
       O38          O  0.3758913  0.0209885  0.1757143    0.00000       Uiso       1.00
      H328          H  0.3888706  0.0101399  0.2060128    0.00000       Uiso       1.00
      H329          H  0.3891594  0.0093106  0.2370252    0.00000       Uiso       1.00
      H330          H  0.3355214  0.0488664  0.2378836    0.00000       Uiso       1.00
      C873          C  0.2158408  0.1014502  0.2414328    0.00000       Uiso       1.00
      C874          C  0.2325926  0.0919788  0.2321133    0.00000       Uiso       1.00
      C875          C  0.2310705  0.0906471  0.2143652    0.00000       Uiso       1.00
      C876          C  0.2486976  0.0818231  0.2051736    0.00000       Uiso       1.00
      C877          C  0.2690175  0.0749275  0.2134422    0.00000       Uiso       1.00
      C878          C  0.2703610  0.0766371  0.2313197    0.00000       Uiso       1.00
      C879          C  0.2516661  0.0839694  0.2409588    0.00000       Uiso       1.00
       O39          O  0.1966928  0.1105803  0.2346941    0.00000       Uiso       1.00
      H331          H  0.2161088  0.0964906  0.2076451    0.00000       Uiso       1.00
      H332          H  0.2462707  0.0806863  0.1915676    0.00000       Uiso       1.00
      H333          H  0.2867316  0.0732279  0.2377210    0.00000       Uiso       1.00
      C880          C  0.2176916  0.1032233  0.2587291    0.00000       Uiso       1.00
      C881          C  0.2355345  0.0947964  0.2680421    0.00000       Uiso       1.00
      C882          C  0.2370059  0.0963201  0.2857785    0.00000       Uiso       1.00
      C883          C  0.2544374  0.0872712  0.2949373    0.00000       Uiso       1.00
      C884          C  0.2699439  0.0757140  0.2866616    0.00000       Uiso       1.00
      C885          C  0.2677760  0.0740905  0.2688208    0.00000       Uiso       1.00
      C886          C  0.2520815  0.0843593  0.2591885    0.00000       Uiso       1.00
       O40          O  0.1999061  0.1136542  0.2654383    0.00000       Uiso       1.00
      H334          H  0.2246124  0.1046238  0.2925134    0.00000       Uiso       1.00
      H335          H  0.2553912  0.0893737  0.3085179    0.00000       Uiso       1.00
      H336          H  0.2773415  0.0640812  0.2624501    0.00000       Uiso       1.00
      C887          C  0.3444524  0.0397896  0.1778729    0.00000       Uiso       1.00
      C888          C  0.3266995  0.0491410  0.1863521    0.00000       Uiso       1.00
      C889          C  0.3104512  0.0594795  0.1774575    0.00000       Uiso       1.00
      C890          C  0.2922371  0.0682393  0.1861208    0.00000       Uiso       1.00
      C891          C  0.2889853  0.0660958  0.2037966    0.00000       Uiso       1.00
      C892          C  0.3052368  0.0553047  0.2124439    0.00000       Uiso       1.00
      C893          C  0.3251395  0.0477857  0.2042727    0.00000       Uiso       1.00
       O41          O  0.3481684  0.0394638  0.1604100    0.00000       Uiso       1.00
      H337          H  0.3120038  0.0607956  0.1637387    0.00000       Uiso       1.00
      H338          H  0.2807357  0.0765381  0.1787514    0.00000       Uiso       1.00
      H339          H  0.3016236  0.0518998  0.2254208    0.00000       Uiso       1.00
      C894          C  0.3619443  0.0311007  0.3134048    0.00000       Uiso       1.00
      C895          C  0.3628214  0.0311510  0.2956143    0.00000       Uiso       1.00
      C896          C  0.3820511  0.0237448  0.2867706    0.00000       Uiso       1.00
      C897          C  0.3821491  0.0233457  0.2689521    0.00000       Uiso       1.00
      C898          C  0.3623349  0.0294942  0.2595569    0.00000       Uiso       1.00
      C899          C  0.3429014  0.0365600  0.2687534    0.00000       Uiso       1.00
      C900          C  0.3435518  0.0386620  0.2865514    0.00000       Uiso       1.00
       O42          O  0.3790714  0.0240466  0.3241538    0.00000       Uiso       1.00
      H340          H  0.3970792  0.0183150  0.2937530    0.00000       Uiso       1.00
      H341          H  0.3978127  0.0180489  0.2627406    0.00000       Uiso       1.00
      H342          H  0.3265224  0.0395484  0.2621583    0.00000       Uiso       1.00
       B19          B  0.3683245  0.0274542  0.3407596    0.00000       Uiso       1.00
       B20          B  0.3681958  0.0275028  0.1591869    0.00000       Uiso       1.00
       B21          B  0.1866958  0.1182706  0.2500586    0.00000       Uiso       1.00
      C901          C  0.6571022  0.3221015  0.0379624    0.00000       Uiso       1.00
      C902          C  0.6758780  0.3136508  0.0462834    0.00000       Uiso       1.00
      C903          C  0.6949489  0.3226192  0.0537448    0.00000       Uiso       1.00
      C904          C  0.7129498  0.3139890  0.0627547    0.00000       Uiso       1.00
      C905          C  0.7115732  0.2962476  0.0653322    0.00000       Uiso       1.00
      C906          C  0.6919913  0.2874938  0.0579150    0.00000       Uiso       1.00
      C907          C  0.6750391  0.2956859  0.0473971    0.00000       Uiso       1.00
       O43          O  0.6547078  0.3396099  0.0363179    0.00000       Uiso       1.00
      H343          H  0.6958401  0.3363801  0.0525419    0.00000       Uiso       1.00
      H344          H  0.7276906  0.3214357  0.0677799    0.00000       Uiso       1.00
      H345          H  0.6889938  0.2744050  0.0611995    0.00000       Uiso       1.00
      C908          C  0.6399920  0.1864883  0.0293522    0.00000       Uiso       1.00
      C909          C  0.6401321  0.2042626  0.0283428    0.00000       Uiso       1.00
      C910          C  0.6236964  0.2130479  0.0180610    0.00000       Uiso       1.00
      C911          C  0.6233163  0.2308687  0.0178863    0.00000       Uiso       1.00
      C912          C  0.6384808  0.2403374  0.0287357    0.00000       Uiso       1.00
      C913          C  0.6546652  0.2312094  0.0391814    0.00000       Uiso       1.00
      C914          C  0.6569924  0.2133789  0.0382947    0.00000       Uiso       1.00
       O44          O  0.6241050  0.1757180  0.0209895    0.00000       Uiso       1.00
      H346          H  0.6111258  0.2060163  0.0101407    0.00000       Uiso       1.00
      H347          H  0.6108368  0.2370287  0.0093113    0.00000       Uiso       1.00
      H348          H  0.6644748  0.2378881  0.0488681    0.00000       Uiso       1.00
      C915          C  0.7841552  0.2414395  0.1014541    0.00000       Uiso       1.00
      C916          C  0.7674035  0.2321197  0.0919825    0.00000       Uiso       1.00
      C917          C  0.7689257  0.2143716  0.0906508    0.00000       Uiso       1.00
      C918          C  0.7512985  0.2051797  0.0818265    0.00000       Uiso       1.00
      C919          C  0.7309787  0.2134479  0.0749305    0.00000       Uiso       1.00
      C920          C  0.7296351  0.2313254  0.0766400    0.00000       Uiso       1.00
      C921          C  0.7483300  0.2409648  0.0839727    0.00000       Uiso       1.00
       O45          O  0.8033032  0.2347012  0.1105846    0.00000       Uiso       1.00
      H349          H  0.7838873  0.2076518  0.0964945    0.00000       Uiso       1.00
      H350          H  0.7537255  0.1915737  0.0806897    0.00000       Uiso       1.00
      H351          H  0.7132645  0.2377263  0.0732305    0.00000       Uiso       1.00
      C922          C  0.7823045  0.2587358  0.1032272    0.00000       Uiso       1.00
      C923          C  0.7644615  0.2680484  0.0948000    0.00000       Uiso       1.00
      C924          C  0.7629901  0.2857848  0.0963236    0.00000       Uiso       1.00
      C925          C  0.7455587  0.2949433  0.0872744    0.00000       Uiso       1.00
      C926          C  0.7300522  0.2866673  0.0757169    0.00000       Uiso       1.00
      C927          C  0.7322201  0.2688265  0.0740935    0.00000       Uiso       1.00
      C928          C  0.7479146  0.2591945  0.0843626    0.00000       Uiso       1.00
       O46          O  0.8000899  0.2654453  0.1136585    0.00000       Uiso       1.00
      H352          H  0.7753836  0.2925200  0.1046276    0.00000       Uiso       1.00
      H353          H  0.7446047  0.3085239  0.0893769    0.00000       Uiso       1.00
      H354          H  0.7226546  0.2624556  0.0640840    0.00000       Uiso       1.00
      C929          C  0.6555439  0.1778772  0.0397912    0.00000       Uiso       1.00
      C930          C  0.6732968  0.1863568  0.0491429    0.00000       Uiso       1.00
      C931          C  0.6895450  0.1774624  0.0594817    0.00000       Uiso       1.00
      C932          C  0.7077592  0.1861261  0.0682418    0.00000       Uiso       1.00
      C933          C  0.7110109  0.2038020  0.0660985    0.00000       Uiso       1.00
      C934          C  0.6947594  0.2124490  0.0553070    0.00000       Uiso       1.00
      C935          C  0.6748568  0.2042774  0.0477876    0.00000       Uiso       1.00
       O47          O  0.6518280  0.1604143  0.0394653    0.00000       Uiso       1.00
      H355          H  0.6879926  0.1637436  0.0607978    0.00000       Uiso       1.00
      H356          H  0.7192606  0.1787569  0.0765409    0.00000       Uiso       1.00
      H357          H  0.6983727  0.2254259  0.0519022    0.00000       Uiso       1.00
      C936          C  0.6380517  0.3134088  0.0311019    0.00000       Uiso       1.00
      C937          C  0.6371747  0.2956183  0.0311523    0.00000       Uiso       1.00
      C938          C  0.6179450  0.2867742  0.0237457    0.00000       Uiso       1.00
      C939          C  0.6178471  0.2689558  0.0233467    0.00000       Uiso       1.00
      C940          C  0.6376612  0.2595608  0.0294954    0.00000       Uiso       1.00
      C941          C  0.6570948  0.2687577  0.0365616    0.00000       Uiso       1.00
      C942          C  0.6564443  0.2865558  0.0386636    0.00000       Uiso       1.00
       O48          O  0.6209247  0.3241574  0.0240475    0.00000       Uiso       1.00
      H358          H  0.6029169  0.2937563  0.0183157    0.00000       Uiso       1.00
      H359          H  0.6021835  0.2627439  0.0180495    0.00000       Uiso       1.00
      H360          H  0.6734737  0.2621629  0.0395503    0.00000       Uiso       1.00
       B22          B  0.6316715  0.3407635  0.0274553    0.00000       Uiso       1.00
       B23          B  0.6318005  0.1591908  0.0275040    0.00000       Uiso       1.00
       B24          B  0.8133002  0.2500658  0.1182751    0.00000       Uiso       1.00
