data_84
_audit_creation_date              0000-00-00
_audit_creation_method            'LanYouShi'
_symmetry_space_group_name_H-M    'P1'
_cell_length_a                    68.1961975
_cell_length_b                    68.1977005
_cell_length_c                    68.1961975
_cell_angle_alpha                 119.9992981
_cell_angle_beta                  60.0003014
_cell_angle_gamma                 120.0009995
loop_
_atom_site_label
_atom_site_type_symbol
_atom_site_fract_x
_atom_site_fract_y
_atom_site_fract_z
_atom_site_U_iso_or_equiv
_atom_site_adp_type
_atom_site_occupancy
        C1          C  0.4575413  0.5952645  0.7330087    0.00000       Uiso       1.00
        C2          C  0.4593048  0.6075768  0.7205380    0.00000       Uiso       1.00
        C3          C  0.4631597  0.5970010  0.6955323    0.00000       Uiso       1.00
        C4          C  0.4593054  0.5722456  0.7205371    0.00000       Uiso       1.00
        C5          C  0.4630062  0.5615711  0.6956121    0.00000       Uiso       1.00
        C6          C  0.4651522  0.5737354  0.6824555    0.00000       Uiso       1.00
        H1          H  0.3929669  0.5361325  0.4564260    0.00000       Uiso       1.00
        H2          H  0.3926838  0.3136228  0.4559173    0.00000       Uiso       1.00
        H3          H  0.4578459  0.6263419  0.7304400    0.00000       Uiso       1.00
        C7          C  0.4047236  0.5424638  0.4047341    0.00000       Uiso       1.00
        C8          C  0.3924117  0.5406990  0.4277534    0.00000       Uiso       1.00
        C9          C  0.4029604  0.5369976  0.4384284    0.00000       Uiso       1.00
       C10          C  0.4277434  0.5407007  0.3924216    0.00000       Uiso       1.00
       C11          C  0.4383177  0.5368451  0.4029978    0.00000       Uiso       1.00
       C12          C  0.4261345  0.5348514  0.4262636    0.00000       Uiso       1.00
        H4          H  0.4650175  0.6073026  0.6863762    0.00000       Uiso       1.00
        H5          H  0.6867480  0.6070323  0.4638650    0.00000       Uiso       1.00
        H6          H  0.3736458  0.5421571  0.4380763    0.00000       Uiso       1.00
       C13          C  0.4047284  0.2669947  0.4047272    0.00000       Uiso       1.00
       C14          C  0.4277480  0.2794666  0.3924151    0.00000       Uiso       1.00
       C15          C  0.4384225  0.3043917  0.4029620    0.00000       Uiso       1.00
       C16          C  0.3924163  0.2794650  0.4277468    0.00000       Uiso       1.00
       C17          C  0.4029912  0.3044709  0.4383191    0.00000       Uiso       1.00
       C18          C  0.4262572  0.3175482  0.4261347    0.00000       Uiso       1.00
        H7          H  0.6863801  0.5440845  0.4650149    0.00000       Uiso       1.00
        H8          H  0.4638696  0.5435736  0.6867432    0.00000       Uiso       1.00
        H9          H  0.4380707  0.2695659  0.3736494    0.00000       Uiso       1.00
       C19          C  0.7330139  0.5952773  0.4575359    0.00000       Uiso       1.00
       C20          C  0.7205428  0.5722578  0.4592994    0.00000       Uiso       1.00
       C21          C  0.6955367  0.5616832  0.4631546    0.00000       Uiso       1.00
       C22          C  0.7205423  0.6075890  0.4593003    0.00000       Uiso       1.00
       C23          C  0.6956168  0.5970396  0.4630009    0.00000       Uiso       1.00
       C24          C  0.6824602  0.5738649  0.4651468    0.00000       Uiso       1.00
       H10          H  0.4564192  0.3132626  0.3929679    0.00000       Uiso       1.00
       H11          H  0.4559174  0.5349866  0.3926941    0.00000       Uiso       1.00
       C25          C  0.4999996  0.5000002  0.5000008    0.00000       Uiso       1.00
       H12          H  0.7304448  0.5619354  0.4578403    0.00000       Uiso       1.00
       C26          C  0.3670662  0.2660884  0.4416915    0.00000       Uiso       1.00
       H13          H  0.3612555  0.2770568  0.4569096    0.00000       Uiso       1.00
       H14          H  0.3676985  0.2537403  0.4438896    0.00000       Uiso       1.00
       H15          H  0.3566064  0.2592164  0.4328776    0.00000       Uiso       1.00
       C27          C  0.4416878  0.5426722  0.3670719    0.00000       Uiso       1.00
       H16          H  0.4569061  0.5411109  0.3612609    0.00000       Uiso       1.00
       H17          H  0.4438861  0.5578508  0.3677042    0.00000       Uiso       1.00
       H18          H  0.4328734  0.5302710  0.3566126    0.00000       Uiso       1.00
       C28          C  0.4573353  0.5583007  0.7339124    0.00000       Uiso       1.00
       H19          H  0.4588971  0.5430831  0.7229432    0.00000       Uiso       1.00
       H20          H  0.4421564  0.5561016  0.7462607    0.00000       Uiso       1.00
       H21          H  0.4697371  0.5671148  0.7407843    0.00000       Uiso       1.00
       C29          C  0.7339180  0.6329390  0.4573302    0.00000       Uiso       1.00
       H22          H  0.7229486  0.6387494  0.4588922    0.00000       Uiso       1.00
       H23          H  0.7462662  0.6323076  0.4421514    0.00000       Uiso       1.00
       H24          H  0.7407904  0.6433981  0.4697315    0.00000       Uiso       1.00
       C30          C  0.4695576  0.5623085  0.6554487    0.00000       Uiso       1.00
       C31          C  0.4604067  0.5671315  0.6442609    0.00000       Uiso       1.00
       C32          C  0.4646136  0.5566499  0.6191617    0.00000       Uiso       1.00
       C33          C  0.4830284  0.5464226  0.6405272    0.00000       Uiso       1.00
       C34          C  0.4871657  0.5356655  0.6154640    0.00000       Uiso       1.00
       C35          C  0.4779808  0.5408155  0.6047127    0.00000       Uiso       1.00
       H25          H  0.4907297  0.5426604  0.6482871    0.00000       Uiso       1.00
       H26          H  0.4496881  0.5788348  0.6551064    0.00000       Uiso       1.00
       C36          C  0.4373058  0.5304447  0.4376910    0.00000       Uiso       1.00
       C37          C  0.4228692  0.5169647  0.4535691    0.00000       Uiso       1.00
       C38          C  0.4330363  0.5128273  0.4643278    0.00000       Uiso       1.00
       C39          C  0.4624657  0.5396054  0.4328786    0.00000       Uiso       1.00
       C40          C  0.4728735  0.5353984  0.4433616    0.00000       Uiso       1.00
       C41          C  0.4581215  0.5220220  0.4591868    0.00000       Uiso       1.00
       H27          H  0.4740466  0.5503330  0.4211840    0.00000       Uiso       1.00
       H28          H  0.4036452  0.5092558  0.4573243    0.00000       Uiso       1.00
       C42          C  0.4376855  0.3445545  0.4373036    0.00000       Uiso       1.00
       C43          C  0.4535727  0.3594737  0.4228641    0.00000       Uiso       1.00
       C44          C  0.4643342  0.3845392  0.4330308    0.00000       Uiso       1.00
       C45          C  0.4328651  0.3557425  0.4624638    0.00000       Uiso       1.00
       C46          C  0.4433476  0.3808397  0.4728708    0.00000       Uiso       1.00
       C47          C  0.4591832  0.3952902  0.4581194    0.00000       Uiso       1.00
       H29          H  0.4211650  0.3449039  0.4740455    0.00000       Uiso       1.00
       H30          H  0.4573304  0.3517058  0.4036379    0.00000       Uiso       1.00
       C48          C  0.6554533  0.5626916  0.4695529    0.00000       Uiso       1.00
       C49          C  0.6442658  0.5375316  0.4603947    0.00000       Uiso       1.00
       C50          C  0.6191660  0.5271215  0.4646044    0.00000       Uiso       1.00
       C51          C  0.6405315  0.5771266  0.4830306    0.00000       Uiso       1.00
       C52          C  0.6154678  0.5669584  0.4871679    0.00000       Uiso       1.00
       C53          C  0.6047168  0.5418737  0.4779785    0.00000       Uiso       1.00
       H31          H  0.6482927  0.5963489  0.4907357    0.00000       Uiso       1.00
       H32          H  0.6551152  0.5259588  0.4496677    0.00000       Uiso       1.00
       C54          C  0.6081643  0.5021254  0.4557143    0.00000       Uiso       1.00
       C55          C  0.5832121  0.4919005  0.4602375    0.00000       Uiso       1.00
       C56          C  0.4978710  0.5442961  0.4382622    0.00000       Uiso       1.00
       C57          C  0.5080958  0.5397766  0.4484687    0.00000       Uiso       1.00
       H33          H  0.5095831  0.5546519  0.4261969    0.00000       Uiso       1.00
       H34          H  0.5274386  0.5467290  0.4439756    0.00000       Uiso       1.00
       H35          H  0.6188764  0.4904179  0.4453602    0.00000       Uiso       1.00
       H36          H  0.5753103  0.4725590  0.4532910    0.00000       Uiso       1.00
       C58          C  0.4823316  0.5302541  0.5794401    0.00000       Uiso       1.00
       C59          C  0.4735682  0.5357504  0.5685939    0.00000       Uiso       1.00
       C60          C  0.4785383  0.5257581  0.5433784    0.00000       Uiso       1.00
       C61          C  0.4957614  0.5145129  0.5650123    0.00000       Uiso       1.00
       C62          C  0.5003282  0.5043957  0.5399131    0.00000       Uiso       1.00
       C63          C  0.4918232  0.5096024  0.5283804    0.00000       Uiso       1.00
       H37          H  0.4525700  0.4888979  0.5072880    0.00000       Uiso       1.00
       H38          H  0.4686541  0.4643480  0.5231839    0.00000       Uiso       1.00
       C64          C  0.4684820  0.5176726  0.4697488    0.00000       Uiso       1.00
       C65          C  0.4537383  0.5042341  0.4854836    0.00000       Uiso       1.00
       C66          C  0.4641530  0.4996677  0.4956029    0.00000       Uiso       1.00
       C67          C  0.4935887  0.5264469  0.4642620    0.00000       Uiso       1.00
       C68          C  0.5038412  0.5214745  0.4742537    0.00000       Uiso       1.00
       C69          C  0.4893981  0.5081778  0.4904000    0.00000       Uiso       1.00
       H39          H  0.4725039  0.5313355  0.5356506    0.00000       Uiso       1.00
       H40          H  0.5290473  0.5474301  0.5110760    0.00000       Uiso       1.00
       C70          C  0.4697438  0.4205606  0.4684826    0.00000       Uiso       1.00
       C71          C  0.4854888  0.4349892  0.4537384    0.00000       Uiso       1.00
       C72          C  0.4956071  0.4600888  0.4641547    0.00000       Uiso       1.00
       C73          C  0.4642454  0.4314056  0.4935907    0.00000       Uiso       1.00
       C74          C  0.4742362  0.4566218  0.5038444    0.00000       Uiso       1.00
       C75          C  0.4903954  0.4716204  0.4894005    0.00000       Uiso       1.00
       H41          H  0.5356465  0.4768148  0.4724946    0.00000       Uiso       1.00
       H42          H  0.5110898  0.4927038  0.5290430    0.00000       Uiso       1.00
       C76          C  0.5794439  0.5315140  0.4823300    0.00000       Uiso       1.00
       C77          C  0.5685962  0.5064068  0.4735627    0.00000       Uiso       1.00
       C78          C  0.5433779  0.4961549  0.4785362    0.00000       Uiso       1.00
       C79          C  0.5650159  0.5462586  0.4957609    0.00000       Uiso       1.00
       C80          C  0.5399153  0.5358448  0.5003260    0.00000       Uiso       1.00
       C81          C  0.5283806  0.5105999  0.4918236    0.00000       Uiso       1.00
       H43          H  0.5073089  0.4709630  0.4525740    0.00000       Uiso       1.00
       H44          H  0.5231820  0.5275181  0.4686837    0.00000       Uiso       1.00
       C82          C  0.4484417  0.4167896  0.5080975    0.00000       Uiso       1.00
       C83          C  0.4382369  0.3918387  0.4978705    0.00000       Uiso       1.00
       C84          C  0.4905586  0.4240485  0.4287487    0.00000       Uiso       1.00
       C85          C  0.4800945  0.3991602  0.4185348    0.00000       Uiso       1.00
       C86          C  0.4602494  0.5515541  0.5832084    0.00000       Uiso       1.00
       C87          C  0.4557286  0.5617610  0.6081603    0.00000       Uiso       1.00
       C88          C  0.5047383  0.5094412  0.5759546    0.00000       Uiso       1.00
       C89          C  0.5005221  0.5199043  0.6008462    0.00000       Uiso       1.00
       C90          C  0.5759590  0.5712484  0.5047403    0.00000       Uiso       1.00
       C91          C  0.6008493  0.5814578  0.5005270    0.00000       Uiso       1.00
       C92          C  0.4287479  0.4952470  0.4905456    0.00000       Uiso       1.00
       C93          C  0.4185367  0.4994619  0.4800812    0.00000       Uiso       1.00
       H45          H  0.4170409  0.4847805  0.5025211    0.00000       Uiso       1.00
       H46          H  0.3992290  0.4921834  0.4842790    0.00000       Uiso       1.00
       H47          H  0.4842989  0.3913301  0.3992264    0.00000       Uiso       1.00
       H48          H  0.5025414  0.4347821  0.4170414    0.00000       Uiso       1.00
       H49          H  0.4439400  0.4246883  0.5274416    0.00000       Uiso       1.00
       H50          H  0.4261632  0.3811290  0.5095816    0.00000       Uiso       1.00
       H51          H  0.5077904  0.5157008  0.6086824    0.00000       Uiso       1.00
       H52          H  0.5151966  0.4974588  0.5652236    0.00000       Uiso       1.00
       H53          H  0.4533068  0.5560555  0.5753106    0.00000       Uiso       1.00
       H54          H  0.4453816  0.5738351  0.6188744    0.00000       Uiso       1.00
       H55          H  0.6086820  0.6007640  0.5077989    0.00000       Uiso       1.00
       H56          H  0.5652255  0.5829555  0.5151966    0.00000       Uiso       1.00
       C94          C  0.4575437  0.8441501  0.9819050    0.00000       Uiso       1.00
       C95          C  0.4593073  0.8566200  0.0049239    0.00000       Uiso       1.00
       C96          C  0.4631626  0.8816254  0.0154980    0.00000       Uiso       1.00
       C97          C  0.4593071  0.8566215  0.9695933    0.00000       Uiso       1.00
       C98          C  0.4630083  0.8815462  0.9801423    0.00000       Uiso       1.00
       C99          C  0.4651545  0.8947021  0.0033164    0.00000       Uiso       1.00
       H57          H  0.3929775  0.1207259  0.2639237    0.00000       Uiso       1.00
       H58          H  0.3926848  0.1212345  0.0422056    0.00000       Uiso       1.00
       H59          H  0.4578490  0.8467183  0.0152461    0.00000       Uiso       1.00
      C100          C  0.4047360  0.1724172  0.3101886    0.00000       Uiso       1.00
      C101          C  0.3924235  0.1493980  0.2977173    0.00000       Uiso       1.00
      C102          C  0.4029714  0.1387235  0.2727922    0.00000       Uiso       1.00
      C103          C  0.4277556  0.1847301  0.2977174    0.00000       Uiso       1.00
      C104          C  0.4383290  0.1741543  0.2727115    0.00000       Uiso       1.00
      C105          C  0.4261453  0.1508886  0.2596360    0.00000       Uiso       1.00
       H60          H  0.4650211  0.8907815  0.0330978    0.00000       Uiso       1.00
       H61          H  0.6867537  0.1132945  0.0335985    0.00000       Uiso       1.00
       H62          H  0.3736579  0.1390748  0.3076189    0.00000       Uiso       1.00
      C106          C  0.4047289  0.1724240  0.0347215    0.00000       Uiso       1.00
      C107          C  0.4277489  0.1847365  0.0364852    0.00000       Uiso       1.00
      C108          C  0.4384238  0.1741900  0.0401890    0.00000       Uiso       1.00
      C109          C  0.3924168  0.1494045  0.0364850    0.00000       Uiso       1.00
      C110          C  0.4029921  0.1388326  0.0403439    0.00000       Uiso       1.00
      C111          C  0.4262585  0.1510174  0.0423388    0.00000       Uiso       1.00
       H63          H  0.6863837  0.1121451  0.9698691    0.00000       Uiso       1.00
       H64          H  0.4638712  0.8904150  0.9701501    0.00000       Uiso       1.00
       H65          H  0.4380715  0.2035021  0.0350267    0.00000       Uiso       1.00
      C112          C  0.7330188  0.1196252  0.9819061    0.00000       Uiso       1.00
      C113          C  0.7205469  0.1178613  0.9695944    0.00000       Uiso       1.00
      C114          C  0.6955408  0.1140056  0.9801714    0.00000       Uiso       1.00
      C115          C  0.7205472  0.1178598  0.0049249    0.00000       Uiso       1.00
      C116          C  0.6956218  0.1141587  0.0156009    0.00000       Uiso       1.00
      C117          C  0.6824645  0.1120126  0.0034373    0.00000       Uiso       1.00
       H66          H  0.4564207  0.1841844  0.0410567    0.00000       Uiso       1.00
       H67          H  0.4559286  0.1844582  0.2635564    0.00000       Uiso       1.00
      C118          C  0.5000042  0.0771545  0.0771831    0.00000       Uiso       1.00
       H68          H  0.7304484  0.1193208  0.9508290    0.00000       Uiso       1.00
      C119          C  0.3670663  0.1354594  0.0345147    0.00000       Uiso       1.00
       H69          H  0.3612557  0.1202414  0.0360761    0.00000       Uiso       1.00
       H70          H  0.3676980  0.1332613  0.0193361    0.00000       Uiso       1.00
       H71          H  0.3566068  0.1442729  0.0469163    0.00000       Uiso       1.00
      C120          C  0.4417006  0.2100797  0.3110934    0.00000       Uiso       1.00
       H72          H  0.4569187  0.2158909  0.3001244    0.00000       Uiso       1.00
       H73          H  0.4438995  0.2094474  0.3234413    0.00000       Uiso       1.00
       H74          H  0.4328863  0.2205386  0.3179657    0.00000       Uiso       1.00
      C121          C  0.4573360  0.8432465  0.9442436    0.00000       Uiso       1.00
       H75          H  0.4588974  0.8542154  0.9384332    0.00000       Uiso       1.00
       H76          H  0.4421570  0.8308979  0.9448755    0.00000       Uiso       1.00
       H77          H  0.4697376  0.8363749  0.9337839    0.00000       Uiso       1.00
      C122          C  0.7339238  0.1198303  0.0188691    0.00000       Uiso       1.00
       H78          H  0.7229549  0.1182680  0.0340870    0.00000       Uiso       1.00
       H79          H  0.7462721  0.1350092  0.0210677    0.00000       Uiso       1.00
       H80          H  0.7407960  0.1074294  0.0100547    0.00000       Uiso       1.00
      C123          C  0.4695603  0.9217085  0.0144901    0.00000       Uiso       1.00
      C124          C  0.4604102  0.9328959  0.0396516    0.00000       Uiso       1.00
      C125          C  0.4646174  0.9579947  0.0500616    0.00000       Uiso       1.00
      C126          C  0.4830305  0.9366300  0.0000542    0.00000       Uiso       1.00
      C127          C  0.4871681  0.9616929  0.0102223    0.00000       Uiso       1.00
      C128          C  0.4779841  0.9724438  0.0353085    0.00000       Uiso       1.00
       H81          H  0.4907319  0.9288712  0.9808314    0.00000       Uiso       1.00
       H82          H  0.4496920  0.9220502  0.0512286    0.00000       Uiso       1.00
      C129          C  0.4373157  0.1394617  0.2326307    0.00000       Uiso       1.00
      C130          C  0.4228783  0.1235834  0.2177098    0.00000       Uiso       1.00
      C131          C  0.4330445  0.1128252  0.1926468    0.00000       Uiso       1.00
      C132          C  0.4624755  0.1442746  0.2214433    0.00000       Uiso       1.00
      C133          C  0.4728825  0.1337921  0.1963457    0.00000       Uiso       1.00
      C134          C  0.4581297  0.1179668  0.1818967    0.00000       Uiso       1.00
       H83          H  0.4740569  0.1559693  0.2322841    0.00000       Uiso       1.00
       H84          H  0.4036543  0.1198279  0.2254703    0.00000       Uiso       1.00
      C135          C  0.4376873  0.1398490  0.0467481    0.00000       Uiso       1.00
      C136          C  0.4535753  0.1542886  0.0602189    0.00000       Uiso       1.00
      C137          C  0.4643372  0.1441225  0.0643564    0.00000       Uiso       1.00
      C138          C  0.4328666  0.1146891  0.0375970    0.00000       Uiso       1.00
      C139          C  0.4433496  0.1042826  0.0418048    0.00000       Uiso       1.00
      C140          C  0.4591860  0.1190342  0.0551705    0.00000       Uiso       1.00
       H85          H  0.4211659  0.1031073  0.0268773    0.00000       Uiso       1.00
       H86          H  0.4573332  0.1735147  0.0679189    0.00000       Uiso       1.00
      C141          C  0.6554576  0.1076058  0.0148653    0.00000       Uiso       1.00
      C142          C  0.6442696  0.1167635  0.0100508    0.00000       Uiso       1.00
      C143          C  0.6191700  0.1125533  0.0205313    0.00000       Uiso       1.00
      C144          C  0.6405364  0.0941279  0.0307448    0.00000       Uiso       1.00
      C145          C  0.6154728  0.0899901  0.0415037    0.00000       Uiso       1.00
      C146          C  0.6047212  0.0991791  0.0363594    0.00000       Uiso       1.00
       H87          H  0.6482980  0.0864232  0.0345011    0.00000       Uiso       1.00
       H88          H  0.6551195  0.1274913  0.9983557    0.00000       Uiso       1.00
      C147          C  0.6081677  0.1214429  0.0154271    0.00000       Uiso       1.00
      C148          C  0.5832156  0.1169192  0.0256318    0.00000       Uiso       1.00
      C149          C  0.4978798  0.1388920  0.1853447    0.00000       Uiso       1.00
      C150          C  0.5081038  0.1286860  0.1603940    0.00000       Uiso       1.00
       H89          H  0.5095925  0.1509574  0.1960532    0.00000       Uiso       1.00
       H90          H  0.5274465  0.1331795  0.1524962    0.00000       Uiso       1.00
       H91          H  0.6188795  0.1317972  0.0033611    0.00000       Uiso       1.00
       H92          H  0.5753134  0.1238654  0.0211384    0.00000       Uiso       1.00
      C151          C  0.4823353  0.9977161  0.0456681    0.00000       Uiso       1.00
      C152          C  0.4735727  0.0085620  0.0707739    0.00000       Uiso       1.00
      C153          C  0.4785431  0.0337772  0.0810262    0.00000       Uiso       1.00
      C154          C  0.4957645  0.0121440  0.0309243    0.00000       Uiso       1.00
      C155          C  0.5003316  0.0372430  0.0413388    0.00000       Uiso       1.00
      C156          C  0.4918275  0.0487752  0.0665829    0.00000       Uiso       1.00
       H93          H  0.4525752  0.0698663  0.1062243    0.00000       Uiso       1.00
       H94          H  0.4686572  0.0539709  0.0496944    0.00000       Uiso       1.00
      C157          C  0.4684893  0.1074052  0.1566249    0.00000       Uiso       1.00
      C158          C  0.4537449  0.0916703  0.1421959    0.00000       Uiso       1.00
      C159          C  0.4641588  0.0815514  0.1170956    0.00000       Uiso       1.00
      C160          C  0.4935960  0.1128926  0.1457786    0.00000       Uiso       1.00
      C161          C  0.5038477  0.1029013  0.1205621    0.00000       Uiso       1.00
      C162          C  0.4894037  0.0867549  0.1055631    0.00000       Uiso       1.00
       H95          H  0.4725094  0.0415046  0.1003657    0.00000       Uiso       1.00
       H96          H  0.5290528  0.0660802  0.0844899    0.00000       Uiso       1.00
      C163          C  0.4697470  0.1086713  0.0595171    0.00000       Uiso       1.00
      C164          C  0.4854927  0.1234157  0.0729443    0.00000       Uiso       1.00
      C165          C  0.4956115  0.1129999  0.0775095    0.00000       Uiso       1.00
      C166          C  0.4642483  0.0835636  0.0507532    0.00000       Uiso       1.00
      C167          C  0.4742396  0.0733103  0.0557249    0.00000       Uiso       1.00
      C168          C  0.4903995  0.0877543  0.0690076    0.00000       Uiso       1.00
       H97          H  0.5356502  0.1046611  0.0458557    0.00000       Uiso       1.00
       H98          H  0.5110928  0.0481131  0.0297549    0.00000       Uiso       1.00
      C169          C  0.5794484  0.0948270  0.0469217    0.00000       Uiso       1.00
      C170          C  0.5686002  0.1035938  0.0414294    0.00000       Uiso       1.00
      C171          C  0.5433822  0.0986199  0.0514227    0.00000       Uiso       1.00
      C172          C  0.5650210  0.0813960  0.0626640    0.00000       Uiso       1.00
      C173          C  0.5399204  0.0768303  0.0727862    0.00000       Uiso       1.00
      C174          C  0.5283853  0.0853322  0.0675782    0.00000       Uiso       1.00
       H99          H  0.5073138  0.1245807  0.0882620    0.00000       Uiso       1.00
      H100          H  0.5231884  0.1084717  0.1128344    0.00000       Uiso       1.00
      C175          C  0.4484439  0.0690567  0.0374348    0.00000       Uiso       1.00
      C176          C  0.4382386  0.0792832  0.0329156    0.00000       Uiso       1.00
      C177          C  0.4905628  0.1484052  0.0819228    0.00000       Uiso       1.00
      C178          C  0.4800982  0.1586186  0.0777124    0.00000       Uiso       1.00
      C179          C  0.4602544  0.9939473  0.0852824    0.00000       Uiso       1.00
      C180          C  0.4557332  0.9689957  0.0750591    0.00000       Uiso       1.00
      C181          C  0.5047406  0.0012022  0.0059335    0.00000       Uiso       1.00
      C182          C  0.5005247  0.9763114  0.9957224    0.00000       Uiso       1.00
      C183          C  0.5759646  0.0724170  0.0677313    0.00000       Uiso       1.00
      C184          C  0.6008549  0.0766309  0.0572631    0.00000       Uiso       1.00
      C185          C  0.4287545  0.0866078  0.1531378    0.00000       Uiso       1.00
      C186          C  0.4185441  0.0970717  0.1780282    0.00000       Uiso       1.00
      H101          H  0.4170471  0.0746322  0.1424033    0.00000       Uiso       1.00
      H102          H  0.3992366  0.0928735  0.1858600    0.00000       Uiso       1.00
      H103          H  0.4843029  0.1779267  0.0849855    0.00000       Uiso       1.00
      H104          H  0.5025462  0.1601126  0.0923804    0.00000       Uiso       1.00
      H105          H  0.4439419  0.0497127  0.0304917    0.00000       Uiso       1.00
      H106          H  0.4261643  0.0675720  0.0225689    0.00000       Uiso       1.00
      H107          H  0.5077924  0.9684756  0.9764145    0.00000       Uiso       1.00
      H108          H  0.5151991  0.0119339  0.9942238    0.00000       Uiso       1.00
      H109          H  0.4533125  0.0018449  0.1046242    0.00000       Uiso       1.00
      H110          H  0.4453866  0.9582815  0.0867665    0.00000       Uiso       1.00
      H111          H  0.6086879  0.0693594  0.0614648    0.00000       Uiso       1.00
      H112          H  0.5652316  0.0619607  0.0797160    0.00000       Uiso       1.00
      C187          C  0.4575479  0.5952582  0.9818987    0.00000       Uiso       1.00
      C188          C  0.4593119  0.5722393  0.9695861    0.00000       Uiso       1.00
      C189          C  0.4631678  0.5616655  0.9801623    0.00000       Uiso       1.00
      C190          C  0.4593115  0.6075691  0.0049175    0.00000       Uiso       1.00
      C191          C  0.4630134  0.5970204  0.0155923    0.00000       Uiso       1.00
      C192          C  0.4651600  0.5738463  0.0034279    0.00000       Uiso       1.00
      H113          H  0.3929854  0.3132418  0.0410295    0.00000       Uiso       1.00
      H114          H  0.3927006  0.5349560  0.2635431    0.00000       Uiso       1.00
      H115          H  0.4578528  0.5619172  0.9508207    0.00000       Uiso       1.00
      C193          C  0.4047442  0.2669780  0.0346984    0.00000       Uiso       1.00
      C194          C  0.3924315  0.2794487  0.0364628    0.00000       Uiso       1.00
      C195          C  0.4029795  0.3043736  0.0401646    0.00000       Uiso       1.00
      C196          C  0.4277642  0.2794495  0.0364621    0.00000       Uiso       1.00
      C197          C  0.4383377  0.3044553  0.0403179    0.00000       Uiso       1.00
      C198          C  0.4261537  0.3175302  0.0423114    0.00000       Uiso       1.00
      H116          H  0.4650261  0.5440661  0.9698605    0.00000       Uiso       1.00
      H117          H  0.6867625  0.5435710  0.9701363    0.00000       Uiso       1.00
      H118          H  0.3736655  0.2695469  0.0350043    0.00000       Uiso       1.00
      C199          C  0.4047469  0.5424404  0.3101722    0.00000       Uiso       1.00
      C200          C  0.4277667  0.5406772  0.2977007    0.00000       Uiso       1.00
      C201          C  0.4384407  0.5369738  0.2727754    0.00000       Uiso       1.00
      C202          C  0.3924341  0.5406765  0.2977014    0.00000       Uiso       1.00
      C203          C  0.4030086  0.5368180  0.2726953    0.00000       Uiso       1.00
      C204          C  0.4262747  0.5348237  0.2596185    0.00000       Uiso       1.00
      H119          H  0.6863933  0.6072991  0.0330848    0.00000       Uiso       1.00
      H120          H  0.4638771  0.6070125  0.0335901    0.00000       Uiso       1.00
      H121          H  0.4380900  0.5421360  0.3076019    0.00000       Uiso       1.00
      C205          C  0.7330278  0.5952641  0.9818928    0.00000       Uiso       1.00
      C206          C  0.7205559  0.6075747  0.0049119    0.00000       Uiso       1.00
      C207          C  0.6955499  0.5969972  0.0154860    0.00000       Uiso       1.00
      C208          C  0.7205563  0.5722449  0.9695805    0.00000       Uiso       1.00
      C209          C  0.6956310  0.5615685  0.9801295    0.00000       Uiso       1.00
      C210          C  0.6824737  0.5737309  0.0033037    0.00000       Uiso       1.00
      H122          H  0.4564377  0.5361066  0.2639048    0.00000       Uiso       1.00
      H123          H  0.4559376  0.3136107  0.0421769    0.00000       Uiso       1.00
      C211          C  0.5000141  0.4999819  0.0771652    0.00000       Uiso       1.00
      H124          H  0.7304578  0.6263400  0.0152347    0.00000       Uiso       1.00
      C212          C  0.3670837  0.5426462  0.3110777    0.00000       Uiso       1.00
      H125          H  0.3612726  0.5410846  0.3001089    0.00000       Uiso       1.00
      H126          H  0.3677158  0.5578246  0.3234260    0.00000       Uiso       1.00
      H127          H  0.3566245  0.5302445  0.3179495    0.00000       Uiso       1.00
      C213          C  0.4417094  0.2660742  0.0344909    0.00000       Uiso       1.00
      H128          H  0.4569277  0.2770433  0.0360525    0.00000       Uiso       1.00
      H129          H  0.4439078  0.2537265  0.0193120    0.00000       Uiso       1.00
      H130          H  0.4328955  0.2592017  0.0468921    0.00000       Uiso       1.00
      C214          C  0.4573409  0.6329184  0.0188626    0.00000       Uiso       1.00
      H131          H  0.4589029  0.6387287  0.0340804    0.00000       Uiso       1.00
      H132          H  0.4421617  0.6322860  0.0210614    0.00000       Uiso       1.00
      H133          H  0.4697422  0.6433781  0.0100487    0.00000       Uiso       1.00
      C215          C  0.7339321  0.5583013  0.9442304    0.00000       Uiso       1.00
      H134          H  0.7229629  0.5430834  0.9384196    0.00000       Uiso       1.00
      H135          H  0.7462808  0.5561031  0.9448621    0.00000       Uiso       1.00
      H136          H  0.7408039  0.5671157  0.9337713    0.00000       Uiso       1.00
      C216          C  0.4695664  0.5626730  0.0148550    0.00000       Uiso       1.00
      C217          C  0.4604161  0.5375116  0.0100318    0.00000       Uiso       1.00
      C218          C  0.4646240  0.5271019  0.0205136    0.00000       Uiso       1.00
      C219          C  0.4830374  0.5771089  0.0307416    0.00000       Uiso       1.00
      C220          C  0.4871757  0.5669411  0.0414990    0.00000       Uiso       1.00
      C221          C  0.4779914  0.5418551  0.0363486    0.00000       Uiso       1.00
      H137          H  0.4907383  0.5963320  0.0345040    0.00000       Uiso       1.00
      H138          H  0.4496981  0.5259352  0.9983283    0.00000       Uiso       1.00
      C222          C  0.4373243  0.3445353  0.0467185    0.00000       Uiso       1.00
      C223          C  0.4228871  0.3594556  0.0601983    0.00000       Uiso       1.00
      C224          C  0.4330536  0.3845184  0.0643361    0.00000       Uiso       1.00
      C225          C  0.4624841  0.3557232  0.0375582    0.00000       Uiso       1.00
      C226          C  0.4728913  0.3808207  0.0417656    0.00000       Uiso       1.00
      C227          C  0.4581387  0.3952690  0.0551419    0.00000       Uiso       1.00
      H139          H  0.4740653  0.3448828  0.0268308    0.00000       Uiso       1.00
      H140          H  0.4036632  0.3516948  0.0679069    0.00000       Uiso       1.00
      C228          C  0.4377026  0.5304148  0.2326120    0.00000       Uiso       1.00
      C229          C  0.4535903  0.5169446  0.2176929    0.00000       Uiso       1.00
      C230          C  0.4643513  0.5128074  0.1926272    0.00000       Uiso       1.00
      C231          C  0.4328813  0.5395656  0.2214237    0.00000       Uiso       1.00
      C232          C  0.4433634  0.5353581  0.1963263    0.00000       Uiso       1.00
      C233          C  0.4591995  0.5219930  0.1818759    0.00000       Uiso       1.00
      H141          H  0.4211808  0.5502848  0.2322622    0.00000       Uiso       1.00
      H142          H  0.4573487  0.5092447  0.2254611    0.00000       Uiso       1.00
      C234          C  0.6554669  0.5623025  0.0144766    0.00000       Uiso       1.00
      C235          C  0.6442798  0.5671166  0.0396368    0.00000       Uiso       1.00
      C236          C  0.6191803  0.5566356  0.0500464    0.00000       Uiso       1.00
      C237          C  0.6405450  0.5464228  0.0000410    0.00000       Uiso       1.00
      C238          C  0.6154814  0.5356635  0.0102087    0.00000       Uiso       1.00
      C239          C  0.6047308  0.5408075  0.0352936    0.00000       Uiso       1.00
      H143          H  0.6483065  0.5426674  0.9808189    0.00000       Uiso       1.00
      H144          H  0.6551295  0.5788122  0.0512100    0.00000       Uiso       1.00
      C240          C  0.6081789  0.5617394  0.0750427    0.00000       Uiso       1.00
      C241          C  0.5832269  0.5515344  0.0852671    0.00000       Uiso       1.00
      C242          C  0.4978885  0.3918221  0.0328684    0.00000       Uiso       1.00
      C243          C  0.5081127  0.4167726  0.0373882    0.00000       Uiso       1.00
      H145          H  0.5096011  0.3811141  0.0225127    0.00000       Uiso       1.00
      H146          H  0.5274554  0.4246707  0.0304363    0.00000       Uiso       1.00
      H147          H  0.6188912  0.5738056  0.0867507    0.00000       Uiso       1.00
      H148          H  0.5753254  0.5560275  0.1046087    0.00000       Uiso       1.00
      C244          C  0.4823433  0.5314958  0.0469102    0.00000       Uiso       1.00
      C245          C  0.4735805  0.5063902  0.0414136    0.00000       Uiso       1.00
      C246          C  0.4785515  0.4961382  0.0514063    0.00000       Uiso       1.00
      C247          C  0.4957733  0.5462397  0.0626521    0.00000       Uiso       1.00
      C248          C  0.5003411  0.5358255  0.0727696    0.00000       Uiso       1.00
      C249          C  0.4918367  0.5105816  0.0675626    0.00000       Uiso       1.00
      H149          H  0.4525849  0.4709400  0.0882664    0.00000       Uiso       1.00
      H150          H  0.4686679  0.5274693  0.1128171    0.00000       Uiso       1.00
      C250          C  0.4684985  0.4205406  0.0594916    0.00000       Uiso       1.00
      C251          C  0.4537543  0.4349690  0.0729300    0.00000       Uiso       1.00
      C252          C  0.4641683  0.4600691  0.0774968    0.00000       Uiso       1.00
      C253          C  0.4936051  0.4313873  0.0507179    0.00000       Uiso       1.00
      C254          C  0.5038570  0.4566036  0.0556906    0.00000       Uiso       1.00
      C255          C  0.4894133  0.4716021  0.0689871    0.00000       Uiso       1.00
      H151          H  0.4725176  0.4767990  0.0458286    0.00000       Uiso       1.00
      H152          H  0.5290611  0.4926758  0.0297352    0.00000       Uiso       1.00
      C256          C  0.4697596  0.5176468  0.1566053    0.00000       Uiso       1.00
      C257          C  0.4855051  0.5042201  0.1421769    0.00000       Uiso       1.00
      C258          C  0.4956230  0.4996553  0.1170771    0.00000       Uiso       1.00
      C259          C  0.4642603  0.5264104  0.1457600    0.00000       Uiso       1.00
      C260          C  0.4742507  0.5214390  0.1205437    0.00000       Uiso       1.00
      C261          C  0.4904103  0.5081570  0.1055452    0.00000       Uiso       1.00
      H153          H  0.5356614  0.5313095  0.1003518    0.00000       Uiso       1.00
      H154          H  0.5111028  0.5474095  0.0844620    0.00000       Uiso       1.00
      C262          C  0.5794580  0.5302447  0.0456528    0.00000       Uiso       1.00
      C263          C  0.5686107  0.5357367  0.0707601    0.00000       Uiso       1.00
      C264          C  0.5433927  0.5257428  0.0810116    0.00000       Uiso       1.00
      C265          C  0.5650298  0.5145023  0.0309076    0.00000       Uiso       1.00
      C266          C  0.5399294  0.5043797  0.0413209    0.00000       Uiso       1.00
      C267          C  0.5283951  0.5095873  0.0665661    0.00000       Uiso       1.00
      H155          H  0.5073251  0.4889033  0.1062031    0.00000       Uiso       1.00
      H156          H  0.5231978  0.4643317  0.0496474    0.00000       Uiso       1.00
      C268          C  0.4484561  0.5397281  0.1603759    0.00000       Uiso       1.00
      C269          C  0.4382517  0.5442470  0.1853269    0.00000       Uiso       1.00
      C270          C  0.4905758  0.4952420  0.1531179    0.00000       Uiso       1.00
      C271          C  0.4801121  0.4994521  0.1780064    0.00000       Uiso       1.00
      C272          C  0.4602614  0.4918816  0.0256093    0.00000       Uiso       1.00
      C273          C  0.4557396  0.5021046  0.0154021    0.00000       Uiso       1.00
      C274          C  0.5047496  0.5712303  0.0677241    0.00000       Uiso       1.00
      C275          C  0.5005324  0.5814416  0.0572608    0.00000       Uiso       1.00
      C276          C  0.5759726  0.5094354  0.0059176    0.00000       Uiso       1.00
      C277          C  0.6008635  0.5199047  0.9957092    0.00000       Uiso       1.00
      C278          C  0.4287640  0.4240266  0.0819166    0.00000       Uiso       1.00
      C279          C  0.4185534  0.3991364  0.0777013    0.00000       Uiso       1.00
      H157          H  0.4170566  0.4347607  0.0923830    0.00000       Uiso       1.00
      H158          H  0.3992459  0.3913042  0.0849795    0.00000       Uiso       1.00
      H159          H  0.4843173  0.4921792  0.1858368    0.00000       Uiso       1.00
      H160          H  0.5025590  0.4847849  0.1423844    0.00000       Uiso       1.00
      H161          H  0.4439537  0.5466710  0.1524769    0.00000       Uiso       1.00
      H162          H  0.4261777  0.5545932  0.1960366    0.00000       Uiso       1.00
      H163          H  0.5078002  0.6007493  0.0614645    0.00000       Uiso       1.00
      H164          H  0.5152081  0.5829405  0.0797070    0.00000       Uiso       1.00
      H165          H  0.4533193  0.4725400  0.0211077    0.00000       Uiso       1.00
      H166          H  0.4453924  0.4903972  0.0033276    0.00000       Uiso       1.00
      H167          H  0.6086959  0.5157032  0.9764028    0.00000       Uiso       1.00
      H168          H  0.5652397  0.4974512  0.9942105    0.00000       Uiso       1.00
      C280          C  0.9819156  0.5952826  0.4575305    0.00000       Uiso       1.00
      C281          C  0.0049349  0.6075951  0.4592943    0.00000       Uiso       1.00
      C282          C  0.0155093  0.5970187  0.4631490    0.00000       Uiso       1.00
      C283          C  0.9696035  0.5722631  0.4592941    0.00000       Uiso       1.00
      C284          C  0.9801527  0.5615880  0.4629948    0.00000       Uiso       1.00
      C285          C  0.0033272  0.5737523  0.4651410    0.00000       Uiso       1.00
      H169          H  0.2639383  0.5361528  0.3929579    0.00000       Uiso       1.00
      H170          H  0.0422135  0.3136383  0.3926701    0.00000       Uiso       1.00
      H171          H  0.0152576  0.6263608  0.4578358    0.00000       Uiso       1.00
      C286          C  0.3102045  0.5424833  0.4047147    0.00000       Uiso       1.00
      C287          C  0.2977327  0.5407194  0.3924029    0.00000       Uiso       1.00
      C288          C  0.2728073  0.5370172  0.4029512    0.00000       Uiso       1.00
      C289          C  0.2977336  0.5407185  0.4277339    0.00000       Uiso       1.00
      C290          C  0.2727274  0.5368622  0.4383078    0.00000       Uiso       1.00
      C291          C  0.2596512  0.5348693  0.4261248    0.00000       Uiso       1.00
      H172          H  0.0331096  0.6073204  0.4650070    0.00000       Uiso       1.00
      H173          H  0.0336153  0.6070341  0.6867329    0.00000       Uiso       1.00
      H174          H  0.3076341  0.5421788  0.3736375    0.00000       Uiso       1.00
      C292          C  0.0347291  0.2670083  0.4047137    0.00000       Uiso       1.00
      C293          C  0.0364935  0.2794788  0.4277330    0.00000       Uiso       1.00
      C294          C  0.0401978  0.3044038  0.4384077    0.00000       Uiso       1.00
      C295          C  0.0364925  0.2794797  0.3924020    0.00000       Uiso       1.00
      C296          C  0.0403519  0.3044855  0.4029771    0.00000       Uiso       1.00
      C297          C  0.0423475  0.3175614  0.4262428    0.00000       Uiso       1.00
      H175          H  0.9698842  0.5440850  0.6863636    0.00000       Uiso       1.00
      H176          H  0.9701601  0.5435901  0.4638578    0.00000       Uiso       1.00
      H177          H  0.0350351  0.2695770  0.4380553    0.00000       Uiso       1.00
      C298          C  0.9819229  0.5952757  0.7329974    0.00000       Uiso       1.00
      C299          C  0.9696105  0.5722565  0.7205261    0.00000       Uiso       1.00
      C300          C  0.9801871  0.5616835  0.6955203    0.00000       Uiso       1.00
      C301          C  0.0049418  0.6075885  0.7205262    0.00000       Uiso       1.00
      C302          C  0.0156174  0.5970406  0.6956012    0.00000       Uiso       1.00
      C303          C  0.0034531  0.5738664  0.6824445    0.00000       Uiso       1.00
      H178          H  0.0410660  0.3132736  0.4564042    0.00000       Uiso       1.00
      H179          H  0.2635724  0.5350024  0.4559070    0.00000       Uiso       1.00
      C304          C  0.0771957  0.5000125  0.4999868    0.00000       Uiso       1.00
      H180          H  0.9508448  0.5619333  0.7304276    0.00000       Uiso       1.00
      C305          C  0.0345215  0.2661046  0.3670522    0.00000       Uiso       1.00
      H181          H  0.0360829  0.2770737  0.3612419    0.00000       Uiso       1.00
      H182          H  0.0193424  0.2537561  0.3676843    0.00000       Uiso       1.00
      H183          H  0.0469230  0.2592331  0.3565926    0.00000       Uiso       1.00
      C306          C  0.3111101  0.5426890  0.4416781    0.00000       Uiso       1.00
      H184          H  0.3001413  0.5411267  0.4568960    0.00000       Uiso       1.00
      H185          H  0.3234586  0.5578678  0.4438767    0.00000       Uiso       1.00
      H186          H  0.3179824  0.5302880  0.4328637    0.00000       Uiso       1.00
      C307          C  0.9442530  0.5583181  0.4573238    0.00000       Uiso       1.00
      H187          H  0.9384425  0.5431001  0.4588852    0.00000       Uiso       1.00
      H188          H  0.9448848  0.5561200  0.4421452    0.00000       Uiso       1.00
      H189          H  0.9337935  0.5671315  0.4697253    0.00000       Uiso       1.00
      C308          C  0.0188869  0.6329381  0.7339022    0.00000       Uiso       1.00
      H190          H  0.0341049  0.6387494  0.7229332    0.00000       Uiso       1.00
      H191          H  0.0210858  0.6323059  0.7462502    0.00000       Uiso       1.00
      H192          H  0.0100725  0.6433970  0.7407745    0.00000       Uiso       1.00
      C309          C  0.0145012  0.5623249  0.4695462    0.00000       Uiso       1.00
      C310          C  0.0396631  0.5671484  0.4603957    0.00000       Uiso       1.00
      C311          C  0.0500734  0.5566663  0.4646024    0.00000       Uiso       1.00
      C312          C  0.0000652  0.5464376  0.4830163    0.00000       Uiso       1.00
      C313          C  0.0102335  0.5356799  0.4871534    0.00000       Uiso       1.00
      C314          C  0.0353201  0.5408307  0.4779689    0.00000       Uiso       1.00
      H193          H  0.9808423  0.5426748  0.4907174    0.00000       Uiso       1.00
      H194          H  0.0512402  0.5788530  0.4496776    0.00000       Uiso       1.00
      C315          C  0.2326456  0.5304618  0.4372956    0.00000       Uiso       1.00
      C316          C  0.2177240  0.5169826  0.4228590    0.00000       Uiso       1.00
      C317          C  0.1926606  0.5128444  0.4330257    0.00000       Uiso       1.00
      C318          C  0.2214586  0.5396210  0.4624551    0.00000       Uiso       1.00
      C319          C  0.1963606  0.5354133  0.4728625    0.00000       Uiso       1.00
      C320          C  0.1819108  0.5220376  0.4581105    0.00000       Uiso       1.00
      H195          H  0.2323000  0.5503480  0.4740359    0.00000       Uiso       1.00
      H196          H  0.2254841  0.5092748  0.4036353    0.00000       Uiso       1.00
      C321          C  0.0467574  0.3445675  0.4376713    0.00000       Uiso       1.00
      C322          C  0.0602290  0.3594860  0.4535586    0.00000       Uiso       1.00
      C323          C  0.0643670  0.3845513  0.4643202    0.00000       Uiso       1.00
      C324          C  0.0376060  0.3557562  0.4328512    0.00000       Uiso       1.00
      C325          C  0.0418144  0.3808533  0.4433340    0.00000       Uiso       1.00
      C326          C  0.0551808  0.3953030  0.4591696    0.00000       Uiso       1.00
      H197          H  0.0268858  0.3449182  0.4211511    0.00000       Uiso       1.00
      H198          H  0.0679292  0.3517175  0.4573161    0.00000       Uiso       1.00
      C327          C  0.0148806  0.5626947  0.6554379    0.00000       Uiso       1.00
      C328          C  0.0100656  0.5375348  0.6442503    0.00000       Uiso       1.00
      C329          C  0.0205457  0.5271262  0.6191509    0.00000       Uiso       1.00
      C330          C  0.0307603  0.5771309  0.6405169    0.00000       Uiso       1.00
      C331          C  0.0415187  0.5669643  0.6154535    0.00000       Uiso       1.00
      C332          C  0.0363738  0.5418798  0.6047022    0.00000       Uiso       1.00
      H199          H  0.0345170  0.5963532  0.6482781    0.00000       Uiso       1.00
      H200          H  0.9983706  0.5259610  0.6550993    0.00000       Uiso       1.00
      C333          C  0.0154409  0.5021303  0.6081490    0.00000       Uiso       1.00
      C334          C  0.0256451  0.4919069  0.5831972    0.00000       Uiso       1.00
      C335          C  0.1853600  0.5443094  0.4978595    0.00000       Uiso       1.00
      C336          C  0.1604090  0.5397891  0.5080839    0.00000       Uiso       1.00
      H201          H  0.1960691  0.5546646  0.5095716    0.00000       Uiso       1.00
      H202          H  0.1525116  0.5467403  0.5274263    0.00000       Uiso       1.00
      H203          H  0.0033747  0.4904217  0.6188607    0.00000       Uiso       1.00
      H204          H  0.0211513  0.4725655  0.5752953    0.00000       Uiso       1.00
      C337          C  0.0456799  0.5302687  0.4823196    0.00000       Uiso       1.00
      C338          C  0.0707862  0.5357656  0.4735565    0.00000       Uiso       1.00
      C339          C  0.0810387  0.5257726  0.4785264    0.00000       Uiso       1.00
      C340          C  0.0309359  0.5145261  0.4957488    0.00000       Uiso       1.00
      C341          C  0.0413507  0.5044083  0.5003154    0.00000       Uiso       1.00
      C342          C  0.0665953  0.5096156  0.4918107    0.00000       Uiso       1.00
      H205          H  0.1062364  0.4889133  0.4525582    0.00000       Uiso       1.00
      H206          H  0.0497055  0.4643619  0.4686413    0.00000       Uiso       1.00
      C343          C  0.1566387  0.5176874  0.4684705    0.00000       Uiso       1.00
      C344          C  0.1422089  0.5042496  0.4537269    0.00000       Uiso       1.00
      C345          C  0.1171083  0.4996825  0.4641412    0.00000       Uiso       1.00
      C346          C  0.1457928  0.5264601  0.4935769    0.00000       Uiso       1.00
      C347          C  0.1205760  0.5214870  0.5038289    0.00000       Uiso       1.00
      C348          C  0.1055762  0.5081911  0.4893858    0.00000       Uiso       1.00
      H207          H  0.1003785  0.5313506  0.4724923    0.00000       Uiso       1.00
      H208          H  0.0845038  0.5474416  0.5290347    0.00000       Uiso       1.00
      C349          C  0.0595280  0.4205733  0.4697303    0.00000       Uiso       1.00
      C350          C  0.0729560  0.4350011  0.4854753    0.00000       Uiso       1.00
      C351          C  0.0775217  0.4601005  0.4955938    0.00000       Uiso       1.00
      C352          C  0.0507639  0.4314189  0.4642322    0.00000       Uiso       1.00
      C353          C  0.0557362  0.4566350  0.4742232    0.00000       Uiso       1.00
      C354          C  0.0690196  0.4716327  0.4903823    0.00000       Uiso       1.00
      H209          H  0.0458683  0.4768242  0.5356324    0.00000       Uiso       1.00
      H210          H  0.0297667  0.4927153  0.5110764    0.00000       Uiso       1.00
      C355          C  0.0469357  0.5315217  0.5794298    0.00000       Uiso       1.00
      C356          C  0.0414428  0.5064146  0.5685819    0.00000       Uiso       1.00
      C357          C  0.0514357  0.4961641  0.5433641    0.00000       Uiso       1.00
      C358          C  0.0626781  0.5462676  0.5650024    0.00000       Uiso       1.00
      C359          C  0.0727999  0.5358552  0.5399023    0.00000       Uiso       1.00
      C360          C  0.0675914  0.5106105  0.5283673    0.00000       Uiso       1.00
      H211          H  0.0882748  0.4709741  0.5072955    0.00000       Uiso       1.00
      H212          H  0.1128486  0.5275294  0.5231695    0.00000       Uiso       1.00
      C361          C  0.0374447  0.4168038  0.4484285    0.00000       Uiso       1.00
      C362          C  0.0329250  0.3918530  0.4382235    0.00000       Uiso       1.00
      C363          C  0.0819347  0.4240596  0.4905449    0.00000       Uiso       1.00
      C364          C  0.0777238  0.3991715  0.4800805    0.00000       Uiso       1.00
      C365          C  0.0852948  0.5515706  0.4602384    0.00000       Uiso       1.00
      C366          C  0.0750712  0.5617781  0.4557177    0.00000       Uiso       1.00
      C367          C  0.0059448  0.5094537  0.5047253    0.00000       Uiso       1.00
      C368          C  0.9957337  0.5199174  0.5005092    0.00000       Uiso       1.00
      C369          C  0.0677460  0.5712571  0.5759457    0.00000       Uiso       1.00
      C370          C  0.0572782  0.5814651  0.6008357    0.00000       Uiso       1.00
      C371          C  0.1531505  0.4952641  0.4287369    0.00000       Uiso       1.00
      C372          C  0.1780413  0.4994798  0.4185261    0.00000       Uiso       1.00
      H213          H  0.1424154  0.4847983  0.4170300    0.00000       Uiso       1.00
      H214          H  0.1858727  0.4922025  0.3992188    0.00000       Uiso       1.00
      H215          H  0.0849971  0.3913408  0.4842848    0.00000       Uiso       1.00
      H216          H  0.0923929  0.4347927  0.5025277    0.00000       Uiso       1.00
      H217          H  0.0305014  0.4247030  0.4439270    0.00000       Uiso       1.00
      H218          H  0.0225777  0.3811438  0.4261498    0.00000       Uiso       1.00
      H219          H  0.9764254  0.5157134  0.5077773    0.00000       Uiso       1.00
      H220          H  0.9942352  0.4974703  0.5151831    0.00000       Uiso       1.00
      H221          H  0.1046369  0.5560725  0.4532961    0.00000       Uiso       1.00
      H222          H  0.0867787  0.5738532  0.4453712    0.00000       Uiso       1.00
      H223          H  0.0614803  0.6007712  0.6086686    0.00000       Uiso       1.00
      H224          H  0.0797308  0.5829653  0.5652128    0.00000       Uiso       1.00
      C373          C  0.9819114  0.8441745  0.4575368    0.00000       Uiso       1.00
      C374          C  0.9695987  0.8566453  0.4593014    0.00000       Uiso       1.00
      C375          C  0.9801753  0.8816510  0.4631570    0.00000       Uiso       1.00
      C376          C  0.0049307  0.8566461  0.4593006    0.00000       Uiso       1.00
      C377          C  0.0156060  0.8815711  0.4630021    0.00000       Uiso       1.00
      C378          C  0.0034415  0.8947278  0.4651491    0.00000       Uiso       1.00
      H225          H  0.0410441  0.1207623  0.3929775    0.00000       Uiso       1.00
      H226          H  0.2635626  0.1212701  0.3926859    0.00000       Uiso       1.00
      H227          H  0.9508327  0.8467434  0.4578428    0.00000       Uiso       1.00
      C379          C  0.0347136  0.1724541  0.4047366    0.00000       Uiso       1.00
      C380          C  0.0364776  0.1494352  0.3924240    0.00000       Uiso       1.00
      C381          C  0.0401796  0.1387596  0.4029715    0.00000       Uiso       1.00
      C382          C  0.0364780  0.1847656  0.4277559    0.00000       Uiso       1.00
      C383          C  0.0403341  0.1741888  0.4383290    0.00000       Uiso       1.00
      C384          C  0.0423271  0.1509234  0.4261451    0.00000       Uiso       1.00
      H228          H  0.9698735  0.8908072  0.4650156    0.00000       Uiso       1.00
      H229          H  0.9701563  0.1133099  0.6867471    0.00000       Uiso       1.00
      H230          H  0.0350185  0.1391131  0.3736586    0.00000       Uiso       1.00
      C385          C  0.3101935  0.1724599  0.4047308    0.00000       Uiso       1.00
      C386          C  0.2977223  0.1847711  0.4277504    0.00000       Uiso       1.00
      C387          C  0.2727967  0.1742237  0.4384248    0.00000       Uiso       1.00
      C388          C  0.2977220  0.1494407  0.3924185    0.00000       Uiso       1.00
      C389          C  0.2727154  0.1388679  0.4029934    0.00000       Uiso       1.00
      C390          C  0.2596389  0.1510514  0.4262594    0.00000       Uiso       1.00
      H231          H  0.0331058  0.1121597  0.6863768    0.00000       Uiso       1.00
      H232          H  0.0336043  0.8904400  0.4638653    0.00000       Uiso       1.00
      H233          H  0.3076241  0.2035364  0.4380732    0.00000       Uiso       1.00
      C391          C  0.9819139  0.1196368  0.7330108    0.00000       Uiso       1.00
      C392          C  0.0049332  0.1178737  0.7205393    0.00000       Uiso       1.00
      C393          C  0.0155068  0.1140196  0.6955336    0.00000       Uiso       1.00
      C394          C  0.9696012  0.1178729  0.7205400    0.00000       Uiso       1.00
      C395          C  0.9801497  0.1141735  0.6956152    0.00000       Uiso       1.00
      C396          C  0.0033240  0.1120281  0.6824582    0.00000       Uiso       1.00
      H234          H  0.2639263  0.1842170  0.4564215    0.00000       Uiso       1.00
      H235          H  0.0421936  0.1844917  0.4559284    0.00000       Uiso       1.00
      C397          C  0.0771827  0.0771820  0.5000015    0.00000       Uiso       1.00
      H236          H  0.0152564  0.1193324  0.7304404    0.00000       Uiso       1.00
      C398          C  0.3110978  0.1354971  0.3670684    0.00000       Uiso       1.00
      H237          H  0.3001286  0.1202792  0.3612577    0.00000       Uiso       1.00
      H238          H  0.3234464  0.1332988  0.3677001    0.00000       Uiso       1.00
      H239          H  0.3179696  0.1443115  0.3566093    0.00000       Uiso       1.00
      C399          C  0.0345073  0.2101149  0.4417010    0.00000       Uiso       1.00
      H240          H  0.0360693  0.2159252  0.4569188    0.00000       Uiso       1.00
      H241          H  0.0193281  0.2094825  0.4438998    0.00000       Uiso       1.00
      H242          H  0.0469086  0.2205746  0.4328871    0.00000       Uiso       1.00
      C400          C  0.0188759  0.8432707  0.4573294    0.00000       Uiso       1.00
      H243          H  0.0340942  0.8542398  0.4588910    0.00000       Uiso       1.00
      H244          H  0.0210744  0.8309230  0.4421505    0.00000       Uiso       1.00
      H245          H  0.0100620  0.8363982  0.4697306    0.00000       Uiso       1.00
      C401          C  0.9442508  0.1198426  0.7339162    0.00000       Uiso       1.00
      H246          H  0.9384397  0.1182811  0.7229474    0.00000       Uiso       1.00
      H247          H  0.9448829  0.1350209  0.7462646    0.00000       Uiso       1.00
      H248          H  0.9337916  0.1074409  0.7407880    0.00000       Uiso       1.00
      C402          C  0.0148692  0.9217345  0.4695554    0.00000       Uiso       1.00
      C403          C  0.0100457  0.9329228  0.4604056    0.00000       Uiso       1.00
      C404          C  0.0205281  0.9580219  0.4646132    0.00000       Uiso       1.00
      C405          C  0.0307565  0.9366553  0.4830256    0.00000       Uiso       1.00
      C406          C  0.0415145  0.9617187  0.4871636    0.00000       Uiso       1.00
      C407          C  0.0363638  0.9724704  0.4779799    0.00000       Uiso       1.00
      H249          H  0.0345191  0.9288951  0.4907261    0.00000       Uiso       1.00
      H250          H  0.9983419  0.9220778  0.4496875    0.00000       Uiso       1.00
      C408          C  0.0467344  0.1394953  0.4373151    0.00000       Uiso       1.00
      C409          C  0.0602141  0.1236177  0.4228778    0.00000       Uiso       1.00
      C410          C  0.0643521  0.1128585  0.4330437    0.00000       Uiso       1.00
      C411          C  0.0375746  0.1443066  0.4624745    0.00000       Uiso       1.00
      C412          C  0.0417821  0.1338231  0.4728810    0.00000       Uiso       1.00
      C413          C  0.0551583  0.1179984  0.4581284    0.00000       Uiso       1.00
      H251          H  0.0268473  0.1560008  0.4740558    0.00000       Uiso       1.00
      H252          H  0.0679224  0.1198634  0.4036542    0.00000       Uiso       1.00
      C414          C  0.2326320  0.1398820  0.4376876    0.00000       Uiso       1.00
      C415          C  0.2177131  0.1543209  0.4535754    0.00000       Uiso       1.00
      C416          C  0.1926470  0.1441538  0.4643368    0.00000       Uiso       1.00
      C417          C  0.2214431  0.1147218  0.4328666    0.00000       Uiso       1.00
      C418          C  0.1963453  0.1043144  0.4433491    0.00000       Uiso       1.00
      C419          C  0.1818951  0.1190653  0.4591852    0.00000       Uiso       1.00
      H253          H  0.2322815  0.1031406  0.4211660    0.00000       Uiso       1.00
      H254          H  0.2254817  0.1735471  0.4573336    0.00000       Uiso       1.00
      C420          C  0.0144965  0.1076231  0.6554518    0.00000       Uiso       1.00
      C421          C  0.0396571  0.1167818  0.6442643    0.00000       Uiso       1.00
      C422          C  0.0500663  0.1125732  0.6191652    0.00000       Uiso       1.00
      C423          C  0.0000601  0.0941461  0.6405307    0.00000       Uiso       1.00
      C424          C  0.0102274  0.0900099  0.6154675    0.00000       Uiso       1.00
      C425          C  0.0353127  0.0991998  0.6047165    0.00000       Uiso       1.00
      H255          H  0.9808380  0.0864407  0.6482918    0.00000       Uiso       1.00
      H256          H  0.0512308  0.1275084  0.6551135    0.00000       Uiso       1.00
      C426          C  0.0750629  0.1214638  0.6081634    0.00000       Uiso       1.00
      C427          C  0.0852870  0.1169417  0.5832118    0.00000       Uiso       1.00
      C428          C  0.0328854  0.1389213  0.4978779    0.00000       Uiso       1.00
      C429          C  0.0374055  0.1287143  0.5081016    0.00000       Uiso       1.00
      H257          H  0.0225298  0.1509863  0.5095905    0.00000       Uiso       1.00
      H258          H  0.0304538  0.1332066  0.5274439    0.00000       Uiso       1.00
      H259          H  0.0867715  0.1318175  0.6188752    0.00000       Uiso       1.00
      H260          H  0.1046289  0.1238885  0.5753100    0.00000       Uiso       1.00
      C430          C  0.0469260  0.9977430  0.4823315    0.00000       Uiso       1.00
      C431          C  0.0414292  0.0085898  0.4735692    0.00000       Uiso       1.00
      C432          C  0.0514224  0.0338052  0.4785400    0.00000       Uiso       1.00
      C433          C  0.0626686  0.0121702  0.4957607    0.00000       Uiso       1.00
      C434          C  0.0727866  0.0372695  0.5003282    0.00000       Uiso       1.00
      C435          C  0.0675795  0.0488026  0.4918244    0.00000       Uiso       1.00
      H261          H  0.0882830  0.0698970  0.4525734    0.00000       Uiso       1.00
      H262          H  0.1128345  0.0540000  0.4686549    0.00000       Uiso       1.00
      C436          C  0.0595083  0.1074358  0.4684877    0.00000       Uiso       1.00
      C437          C  0.0729465  0.0917015  0.4537434    0.00000       Uiso       1.00
      C438          C  0.0775135  0.0815816  0.4641568    0.00000       Uiso       1.00
      C439          C  0.0507349  0.1129215  0.4935939    0.00000       Uiso       1.00
      C440          C  0.0557079  0.1029292  0.5038451    0.00000       Uiso       1.00
      C441          C  0.0690042  0.0867834  0.4894013    0.00000       Uiso       1.00
      H263          H  0.0458445  0.0415333  0.4725065    0.00000       Uiso       1.00
      H264          H  0.0297522  0.0661055  0.5290490    0.00000       Uiso       1.00
      C442          C  0.1566242  0.1087015  0.4697458    0.00000       Uiso       1.00
      C443          C  0.1421958  0.1234452  0.4854913    0.00000       Uiso       1.00
      C444          C  0.1170957  0.1130285  0.4956096    0.00000       Uiso       1.00
      C445          C  0.1457783  0.0835936  0.4642467    0.00000       Uiso       1.00
      C446          C  0.1205615  0.0733394  0.4742376    0.00000       Uiso       1.00
      C447          C  0.1055632  0.0877827  0.4903972    0.00000       Uiso       1.00
      H265          H  0.1003708  0.1046867  0.5356473    0.00000       Uiso       1.00
      H266          H  0.0844797  0.0481391  0.5110894    0.00000       Uiso       1.00
      C448          C  0.0456715  0.0948494  0.5794441    0.00000       Uiso       1.00
      C449          C  0.0707792  0.1036171  0.5685965    0.00000       Uiso       1.00
      C450          C  0.0810304  0.0986448  0.5433788    0.00000       Uiso       1.00
      C451          C  0.0309255  0.0814191  0.5650167    0.00000       Uiso       1.00
      C452          C  0.0413385  0.0768551  0.5399167    0.00000       Uiso       1.00
      C453          C  0.0665840  0.0853579  0.5283820    0.00000       Uiso       1.00
      H267          H  0.1062218  0.1246088  0.5073118    0.00000       Uiso       1.00
      H268          H  0.0496650  0.1084984  0.5231856    0.00000       Uiso       1.00
      C454          C  0.1603939  0.0690874  0.4484425    0.00000       Uiso       1.00
      C455          C  0.1853454  0.0793148  0.4382377    0.00000       Uiso       1.00
      C456          C  0.1531375  0.1484349  0.4905618    0.00000       Uiso       1.00
      C457          C  0.1780263  0.1586492  0.4800977    0.00000       Uiso       1.00
      C458          C  0.0256241  0.9939757  0.4602509    0.00000       Uiso       1.00
      C459          C  0.0154164  0.9690239  0.4557294    0.00000       Uiso       1.00
      C460          C  0.0677409  0.0012275  0.5047365    0.00000       Uiso       1.00
      C461          C  0.0572771  0.9763359  0.5005195    0.00000       Uiso       1.00
      C462          C  0.0059353  0.0724392  0.5759598    0.00000       Uiso       1.00
      C463          C  0.9957273  0.0766514  0.6008496    0.00000       Uiso       1.00
      C464          C  0.0819327  0.0866406  0.4287535    0.00000       Uiso       1.00
      C465          C  0.0777172  0.0971055  0.4185434    0.00000       Uiso       1.00
      H269          H  0.0923989  0.0746655  0.4170461    0.00000       Uiso       1.00
      H270          H  0.0849950  0.0929086  0.3992363    0.00000       Uiso       1.00
      H271          H  0.1858571  0.1779575  0.4843027    0.00000       Uiso       1.00
      H272          H  0.1424040  0.1601417  0.5025451    0.00000       Uiso       1.00
      H273          H  0.1524945  0.0497433  0.4439403    0.00000       Uiso       1.00
      H274          H  0.1960549  0.0676041  0.4261636    0.00000       Uiso       1.00
      H275          H  0.0614809  0.9684992  0.5077870    0.00000       Uiso       1.00
      H276          H  0.0797244  0.0119580  0.5151944    0.00000       Uiso       1.00
      H277          H  0.0211223  0.0018741  0.4533092    0.00000       Uiso       1.00
      H278          H  0.0033413  0.9583102  0.4453827    0.00000       Uiso       1.00
      H279          H  0.9764206  0.0693792  0.6086823    0.00000       Uiso       1.00
      H280          H  0.9942278  0.0619834  0.5652268    0.00000       Uiso       1.00
      C466          C  0.9819205  0.1196306  0.9819008    0.00000       Uiso       1.00
      C467          C  0.9696079  0.1178652  0.0049196    0.00000       Uiso       1.00
      C468          C  0.9801852  0.1140099  0.0154929    0.00000       Uiso       1.00
      C469          C  0.0049397  0.1178675  0.9695883    0.00000       Uiso       1.00
      C470          C  0.0156156  0.1141662  0.9801363    0.00000       Uiso       1.00
      C471          C  0.0034513  0.1120183  0.0033104    0.00000       Uiso       1.00
      H281          H  0.0410653  0.1841897  0.2639114    0.00000       Uiso       1.00
      H282          H  0.2635779  0.1844870  0.0421885    0.00000       Uiso       1.00
      H283          H  0.9508421  0.1193233  0.0152425    0.00000       Uiso       1.00
      C472          C  0.0347368  0.1724307  0.3101751    0.00000       Uiso       1.00
      C473          C  0.0365002  0.1847431  0.2977044    0.00000       Uiso       1.00
      C474          C  0.0402013  0.1741959  0.2727795    0.00000       Uiso       1.00
      C475          C  0.0365008  0.1494119  0.2977035    0.00000       Uiso       1.00
      C476          C  0.0403560  0.1388391  0.2726977    0.00000       Uiso       1.00
      C477          C  0.0423484  0.1510228  0.2596228    0.00000       Uiso       1.00
      H284          H  0.9698840  0.1121511  0.0330926    0.00000       Uiso       1.00
      H285          H  0.9701685  0.8904234  0.0335868    0.00000       Uiso       1.00
      H286          H  0.0350414  0.2035082  0.3076063    0.00000       Uiso       1.00
      C478          C  0.3102094  0.1724434  0.0347020    0.00000       Uiso       1.00
      C479          C  0.2977383  0.1494239  0.0364656    0.00000       Uiso       1.00
      C480          C  0.2728124  0.1387491  0.0401702    0.00000       Uiso       1.00
      C481          C  0.2977377  0.1847552  0.0364665    0.00000       Uiso       1.00
      C482          C  0.2727310  0.1741799  0.0403261    0.00000       Uiso       1.00
      C483          C  0.2596545  0.1509140  0.0423209    0.00000       Uiso       1.00
      H287          H  0.0331170  0.8907959  0.9698561    0.00000       Uiso       1.00
      H288          H  0.0336138  0.1133035  0.9701435    0.00000       Uiso       1.00
      H289          H  0.3076403  0.1391016  0.0350064    0.00000       Uiso       1.00
      C484          C  0.9819253  0.8441615  0.9818938    0.00000       Uiso       1.00
      C485          C  0.0049442  0.8566333  0.9695817    0.00000       Uiso       1.00
      C486          C  0.0155183  0.8816388  0.9801587    0.00000       Uiso       1.00
      C487          C  0.9696124  0.8566310  0.0049130    0.00000       Uiso       1.00
      C488          C  0.9801615  0.8815557  0.0155889    0.00000       Uiso       1.00
      C489          C  0.0033355  0.8947132  0.0034249    0.00000       Uiso       1.00
      H290          H  0.2639421  0.1207524  0.0410377    0.00000       Uiso       1.00
      H291          H  0.0422153  0.1212401  0.2635422    0.00000       Uiso       1.00
      C490          C  0.0771972  0.0771685  0.0771707    0.00000       Uiso       1.00
      H292          H  0.0152668  0.8467326  0.9508160    0.00000       Uiso       1.00
      C491          C  0.3111134  0.2101052  0.0344963    0.00000       Uiso       1.00
      H293          H  0.3001440  0.2159156  0.0360584    0.00000       Uiso       1.00
      H294          H  0.3234616  0.2094738  0.0193175    0.00000       Uiso       1.00
      H295          H  0.3179858  0.2205643  0.0468976    0.00000       Uiso       1.00
      C492          C  0.0345308  0.1354669  0.3110787    0.00000       Uiso       1.00
      H296          H  0.0360925  0.1202494  0.3001096    0.00000       Uiso       1.00
      H297          H  0.0193519  0.1332678  0.3234270    0.00000       Uiso       1.00
      H298          H  0.0469325  0.1442810  0.3179506    0.00000       Uiso       1.00
      C493          C  0.0188840  0.1198390  0.9442385    0.00000       Uiso       1.00
      H299          H  0.0341024  0.1182778  0.9384276    0.00000       Uiso       1.00
      H300          H  0.0210824  0.1350176  0.9448709    0.00000       Uiso       1.00
      H301          H  0.0100696  0.1074378  0.9337792    0.00000       Uiso       1.00
      C494          C  0.9442623  0.8432544  0.0188576    0.00000       Uiso       1.00
      H302          H  0.9384516  0.8542228  0.0340757    0.00000       Uiso       1.00
      H303          H  0.9448947  0.8309063  0.0210557    0.00000       Uiso       1.00
      H304          H  0.9338025  0.8363825  0.0100437    0.00000       Uiso       1.00
      C495          C  0.0148797  0.1076125  0.0144831    0.00000       Uiso       1.00
      C496          C  0.0100572  0.1167620  0.0396445    0.00000       Uiso       1.00
      C497          C  0.0205402  0.1125548  0.0500537    0.00000       Uiso       1.00
      C498          C  0.0307667  0.0941429  0.0000465    0.00000       Uiso       1.00
      C499          C  0.0415254  0.0900052  0.0102137    0.00000       Uiso       1.00
      C500          C  0.0363757  0.0991887  0.0352998    0.00000       Uiso       1.00
      H305          H  0.0345294  0.0864433  0.9808238    0.00000       Uiso       1.00
      H306          H  0.9983535  0.1274797  0.0512221    0.00000       Uiso       1.00
      C501          C  0.0467547  0.1398531  0.2326176    0.00000       Uiso       1.00
      C502          C  0.0602339  0.1542905  0.2176969    0.00000       Uiso       1.00
      C503          C  0.0643709  0.1441249  0.1926341    0.00000       Uiso       1.00
      C504          C  0.0375944  0.1146939  0.2214302    0.00000       Uiso       1.00
      C505          C  0.0418010  0.1042876  0.1963327    0.00000       Uiso       1.00
      C506          C  0.0551767  0.1190403  0.1818839    0.00000       Uiso       1.00
      H307          H  0.0268675  0.1031126  0.2322709    0.00000       Uiso       1.00
      H308          H  0.0679424  0.1735139  0.2254574    0.00000       Uiso       1.00
      C507          C  0.2326474  0.1394853  0.0467310    0.00000       Uiso       1.00
      C508          C  0.2177289  0.1235973  0.0602017    0.00000       Uiso       1.00
      C509          C  0.1926626  0.1128355  0.0643400    0.00000       Uiso       1.00
      C510          C  0.2214579  0.1443059  0.0375808    0.00000       Uiso       1.00
      C511          C  0.1963599  0.1338230  0.0417894    0.00000       Uiso       1.00
      C512          C  0.1819101  0.1179867  0.0551550    0.00000       Uiso       1.00
      H309          H  0.2322959  0.1560066  0.0268612    0.00000       Uiso       1.00
      H310          H  0.2254980  0.1198394  0.0679011    0.00000       Uiso       1.00
      C513          C  0.0145084  0.9217193  0.0148529    0.00000       Uiso       1.00
      C514          C  0.0396692  0.9329072  0.0100377    0.00000       Uiso       1.00
      C515          C  0.0500788  0.9580061  0.0205182    0.00000       Uiso       1.00
      C516          C  0.0000724  0.9366398  0.0307331    0.00000       Uiso       1.00
      C517          C  0.0102402  0.9617028  0.0414920    0.00000       Uiso       1.00
      C518          C  0.0353256  0.9724542  0.0363469    0.00000       Uiso       1.00
      H311          H  0.9808502  0.9288783  0.0344900    0.00000       Uiso       1.00
      H312          H  0.0512434  0.9220592  0.9983420    0.00000       Uiso       1.00
      C519          C  0.0750756  0.9690083  0.0154132    0.00000       Uiso       1.00
      C520          C  0.0853000  0.9939598  0.0256179    0.00000       Uiso       1.00
      C521          C  0.0329038  0.0792910  0.1853317    0.00000       Uiso       1.00
      C522          C  0.0374230  0.0690676  0.1603811    0.00000       Uiso       1.00
      H313          H  0.0225487  0.0675783  0.1960400    0.00000       Uiso       1.00
      H314          H  0.0304710  0.0497254  0.1524833    0.00000       Uiso       1.00
      H315          H  0.0867839  0.9582970  0.0033466    0.00000       Uiso       1.00
      H316          H  0.1046421  0.0018620  0.0211240    0.00000       Uiso       1.00
      C523          C  0.0469385  0.0948374  0.0456585    0.00000       Uiso       1.00
      C524          C  0.0414426  0.1035994  0.0707642    0.00000       Uiso       1.00
      C525          C  0.0514365  0.0986290  0.0810156    0.00000       Uiso       1.00
      C526          C  0.0626809  0.0814088  0.0309139    0.00000       Uiso       1.00
      C527          C  0.0727995  0.0768417  0.0413275    0.00000       Uiso       1.00
      C528          C  0.0675933  0.0853452  0.0665715    0.00000       Uiso       1.00
      H317          H  0.0882986  0.1245961  0.1062120    0.00000       Uiso       1.00
      H318          H  0.1128482  0.1085154  0.0496820    0.00000       Uiso       1.00
      C529          C  0.0595257  0.1086814  0.1566123    0.00000       Uiso       1.00
      C530          C  0.0729634  0.1234258  0.1421834    0.00000       Uiso       1.00
      C531          C  0.0775295  0.1130125  0.1170832    0.00000       Uiso       1.00
      C532          C  0.0507519  0.0835754  0.1457659    0.00000       Uiso       1.00
      C533          C  0.0557240  0.0733244  0.1205496    0.00000       Uiso       1.00
      C534          C  0.0690198  0.0877683  0.1055507    0.00000       Uiso       1.00
      H319          H  0.0458593  0.1046622  0.1003550    0.00000       Uiso       1.00
      H320          H  0.0297664  0.0481203  0.0844788    0.00000       Uiso       1.00
      C535          C  0.1566390  0.1074257  0.0595023    0.00000       Uiso       1.00
      C536          C  0.1422112  0.0916801  0.0729294    0.00000       Uiso       1.00
      C537          C  0.1171108  0.0815614  0.0774954    0.00000       Uiso       1.00
      C538          C  0.1457926  0.1129244  0.0507393    0.00000       Uiso       1.00
      C539          C  0.1205757  0.1029331  0.0557118    0.00000       Uiso       1.00
      C540          C  0.1055778  0.0867733  0.0689944    0.00000       Uiso       1.00
      H321          H  0.1003847  0.0415240  0.0458420    0.00000       Uiso       1.00
      H322          H  0.0844923  0.0660810  0.0297431    0.00000       Uiso       1.00
      C541          C  0.0456848  0.9977264  0.0469092    0.00000       Uiso       1.00
      C542          C  0.0707926  0.0085746  0.0414162    0.00000       Uiso       1.00
      C543          C  0.0810442  0.0337920  0.0514095    0.00000       Uiso       1.00
      C544          C  0.0309391  0.0121533  0.0626522    0.00000       Uiso       1.00
      C545          C  0.0413526  0.0372531  0.0727744    0.00000       Uiso       1.00
      C546          C  0.0665982  0.0487882  0.0675657    0.00000       Uiso       1.00
      H323          H  0.1062373  0.0698591  0.0882478    0.00000       Uiso       1.00
      H324          H  0.0496808  0.0539842  0.1128218    0.00000       Uiso       1.00
      C547          C  0.1604078  0.1287288  0.0374211    0.00000       Uiso       1.00
      C548          C  0.1853594  0.1389340  0.0329011    0.00000       Uiso       1.00
      C549          C  0.1531534  0.0866100  0.0819070    0.00000       Uiso       1.00
      C550          C  0.1780424  0.0970745  0.0776959    0.00000       Uiso       1.00
      C551          C  0.0256378  0.1169171  0.0852735    0.00000       Uiso       1.00
      C552          C  0.0154294  0.1214383  0.0750509    0.00000       Uiso       1.00
      C553          C  0.0677522  0.0724334  0.0059232    0.00000       Uiso       1.00
      C554          C  0.0572884  0.0766506  0.9957130    0.00000       Uiso       1.00
      C555          C  0.0059487  0.0012097  0.0677202    0.00000       Uiso       1.00
      C556          C  0.9957404  0.9763200  0.0572521    0.00000       Uiso       1.00
      C557          C  0.0819501  0.1484154  0.1531254    0.00000       Uiso       1.00
      C558          C  0.0777355  0.1586252  0.1780157    0.00000       Uiso       1.00
      H325          H  0.0924159  0.1601229  0.1423910    0.00000       Uiso       1.00
      H326          H  0.0850136  0.1779322  0.1858475    0.00000       Uiso       1.00
      H327          H  0.1858737  0.0928698  0.0849683    0.00000       Uiso       1.00
      H328          H  0.1424204  0.0746267  0.0923645    0.00000       Uiso       1.00
      H329          H  0.1525079  0.1332307  0.0304786    0.00000       Uiso       1.00
      H330          H  0.1960686  0.1510082  0.0225545    0.00000       Uiso       1.00
      H331          H  0.0614915  0.0693833  0.9764052    0.00000       Uiso       1.00
      H332          H  0.0797362  0.0619766  0.9942129    0.00000       Uiso       1.00
      H333          H  0.0211367  0.1238585  0.1046152    0.00000       Uiso       1.00
      H334          H  0.0033545  0.1317844  0.0867589    0.00000       Uiso       1.00
      H335          H  0.9764337  0.9684870  0.0614543    0.00000       Uiso       1.00
      H336          H  0.9942415  0.0119422  0.0797055    0.00000       Uiso       1.00
      C559          C  0.4531492  0.6146751  0.7960377    0.00000       Uiso       1.00
      C560          C  0.4519178  0.6135929  0.8166295    0.00000       Uiso       1.00
      C561          C  0.4495240  0.5922334  0.8172836    0.00000       Uiso       1.00
      C562          C  0.4495352  0.5918056  0.8376353    0.00000       Uiso       1.00
      C563          C  0.4533053  0.6130793  0.8573208    0.00000       Uiso       1.00
      C564          C  0.4560453  0.6344860  0.8561237    0.00000       Uiso       1.00
      C565          C  0.4536880  0.6348141  0.8368831    0.00000       Uiso       1.00
        O1          O  0.4526326  0.5958468  0.7744447    0.00000       Uiso       1.00
      H337          H  0.4476207  0.5758346  0.8019131    0.00000       Uiso       1.00
      H338          H  0.4468279  0.5747017  0.8375471    0.00000       Uiso       1.00
      H339          H  0.4615672  0.6513247  0.8695027    0.00000       Uiso       1.00
      C566          C  0.4530869  0.7810900  0.9427083    0.00000       Uiso       1.00
      C567          C  0.4518405  0.7604921  0.9222714    0.00000       Uiso       1.00
      C568          C  0.4494576  0.7598374  0.9026439    0.00000       Uiso       1.00
      C569          C  0.4494752  0.7394862  0.8818530    0.00000       Uiso       1.00
      C570          C  0.4532468  0.7198039  0.8796751    0.00000       Uiso       1.00
      C571          C  0.4559640  0.7209992  0.8995529    0.00000       Uiso       1.00
      C572          C  0.4535975  0.7402379  0.9214789    0.00000       Uiso       1.00
        O2          O  0.4526028  0.8026918  0.9459717    0.00000       Uiso       1.00
      H340          H  0.4475701  0.7752094  0.9035056    0.00000       Uiso       1.00
      H341          H  0.4467792  0.7395782  0.8675395    0.00000       Uiso       1.00
      H342          H  0.4614842  0.7076283  0.8975050    0.00000       Uiso       1.00
      C573          C  0.4531117  0.6344525  0.9624803    0.00000       Uiso       1.00
      C574          C  0.4518466  0.6548789  0.9635702    0.00000       Uiso       1.00
      C575          C  0.4494311  0.6744871  0.9849365    0.00000       Uiso       1.00
      C576          C  0.4494185  0.6952713  0.9853735    0.00000       Uiso       1.00
      C577          C  0.4531859  0.6974554  0.9641012    0.00000       Uiso       1.00
      C578          C  0.4559347  0.6775947  0.9426886    0.00000       Uiso       1.00
      C579          C  0.4536090  0.6556776  0.9423513    0.00000       Uiso       1.00
        O3          O  0.4526001  0.6311787  0.9813102    0.00000       Uiso       1.00
      H343          H  0.4475408  0.6736077  0.0013283    0.00000       Uiso       1.00
      H344          H  0.4467048  0.7095754  0.0024800    0.00000       Uiso       1.00
      H345          H  0.4614475  0.6796548  0.9258511    0.00000       Uiso       1.00
      C580          C  0.4562267  0.6155554  0.9414459    0.00000       Uiso       1.00
      C581          C  0.4567968  0.6151042  0.9203976    0.00000       Uiso       1.00
      C582          C  0.4594047  0.5954804  0.8990742    0.00000       Uiso       1.00
      C583          C  0.4590195  0.5949695  0.8784412    0.00000       Uiso       1.00
      C584          C  0.4546278  0.6134724  0.8790451    0.00000       Uiso       1.00
      C585          C  0.4515026  0.6328148  0.9008909    0.00000       Uiso       1.00
      C586          C  0.4542987  0.6348748  0.9210680    0.00000       Uiso       1.00
        O4          O  0.4580028  0.5975453  0.9439658    0.00000       Uiso       1.00
      H346          H  0.4618374  0.5805527  0.8984523    0.00000       Uiso       1.00
      H347          H  0.4619969  0.5798439  0.8622139    0.00000       Uiso       1.00
      H348          H  0.4454689  0.6456895  0.9027246    0.00000       Uiso       1.00
      C587          C  0.4561614  0.7820538  0.9616244    0.00000       Uiso       1.00
      C588          C  0.4567101  0.7620193  0.9620822    0.00000       Uiso       1.00
      C589          C  0.4592671  0.7629082  0.9817272    0.00000       Uiso       1.00
      C590          C  0.4588667  0.7423949  0.9822388    0.00000       Uiso       1.00
      C591          C  0.4545154  0.7201146  0.9637114    0.00000       Uiso       1.00
      C592          C  0.4514379  0.7195132  0.9443500    0.00000       Uiso       1.00
      C593          C  0.4542451  0.7404330  0.9422958    0.00000       Uiso       1.00
        O5          O  0.4579301  0.8043563  0.9796382    0.00000       Uiso       1.00
      H349          H  0.4616826  0.7796400  0.9966676    0.00000       Uiso       1.00
      H350          H  0.4618087  0.7442631  0.9973835    0.00000       Uiso       1.00
      H351          H  0.4454218  0.7024482  0.9314556    0.00000       Uiso       1.00
      C594          C  0.4562252  0.6357045  0.7950768    0.00000       Uiso       1.00
      C595          C  0.4567896  0.6567466  0.8151073    0.00000       Uiso       1.00
      C596          C  0.4593388  0.6780542  0.8142177    0.00000       Uiso       1.00
      C597          C  0.4589347  0.6986787  0.8347302    0.00000       Uiso       1.00
      C598          C  0.4545967  0.6980871  0.8570113    0.00000       Uiso       1.00
      C599          C  0.4515371  0.6762545  0.8576111    0.00000       Uiso       1.00
      C600          C  0.4543388  0.6560856  0.8366904    0.00000       Uiso       1.00
        O6          O  0.4579669  0.6331826  0.7727840    0.00000       Uiso       1.00
      H352          H  0.4617442  0.6786686  0.7974843    0.00000       Uiso       1.00
      H353          H  0.4618606  0.7148897  0.8328603    0.00000       Uiso       1.00
      H354          H  0.4455336  0.6744133  0.8746773    0.00000       Uiso       1.00
        B1          B  0.4556978  0.6078113  0.7598174    0.00000       Uiso       1.00
        B2          B  0.4556816  0.8173278  0.9694915    0.00000       Uiso       1.00
        B3          B  0.4557077  0.6076733  0.9693437    0.00000       Uiso       1.00
      C601          C  0.7960445  0.6345019  0.4531423    0.00000       Uiso       1.00
      C602          C  0.8166369  0.6549443  0.4519105    0.00000       Uiso       1.00
      C603          C  0.8172911  0.6745642  0.4495168    0.00000       Uiso       1.00
      C604          C  0.8376435  0.6953546  0.4495276    0.00000       Uiso       1.00
      C605          C  0.8573294  0.6975356  0.4532970    0.00000       Uiso       1.00
      C606          C  0.8561323  0.6776717  0.4560368    0.00000       Uiso       1.00
      C607          C  0.8368909  0.6557461  0.4536800    0.00000       Uiso       1.00
        O7          O  0.7744510  0.6312213  0.4526263    0.00000       Uiso       1.00
      H355          H  0.8019202  0.6736898  0.4476141    0.00000       Uiso       1.00
      H356          H  0.8375553  0.7096632  0.4468206    0.00000       Uiso       1.00
      H357          H  0.8695117  0.6797332  0.4615581    0.00000       Uiso       1.00
      C608          C  0.9427181  0.6146907  0.4530753    0.00000       Uiso       1.00
      C609          C  0.9222807  0.6136059  0.4518296    0.00000       Uiso       1.00
      C610          C  0.9026527  0.5922509  0.4494472    0.00000       Uiso       1.00
      C611          C  0.8818612  0.5918294  0.4494654    0.00000       Uiso       1.00
      C612          C  0.8796835  0.6131055  0.4532371    0.00000       Uiso       1.00
      C613          C  0.8995621  0.6345047  0.4559538    0.00000       Uiso       1.00
      C614          C  0.9214885  0.6348249  0.4535866    0.00000       Uiso       1.00
        O8          O  0.9459815  0.5958681  0.4525909    0.00000       Uiso       1.00
      H358          H  0.9035142  0.5758530  0.4475595    0.00000       Uiso       1.00
      H359          H  0.8675473  0.5747282  0.4467697    0.00000       Uiso       1.00
      H360          H  0.8975143  0.6513479  0.4614740    0.00000       Uiso       1.00
      C615          C  0.9624920  0.7811260  0.4531009    0.00000       Uiso       1.00
      C616          C  0.9635817  0.7605242  0.4518356    0.00000       Uiso       1.00
      C617          C  0.9849484  0.7598661  0.4494195    0.00000       Uiso       1.00
      C618          C  0.9853852  0.7395062  0.4494068    0.00000       Uiso       1.00
      C619          C  0.9641124  0.7198175  0.4531745    0.00000       Uiso       1.00
      C620          C  0.9426994  0.7210150  0.4559239    0.00000       Uiso       1.00
      C621          C  0.9423622  0.7402693  0.4535984    0.00000       Uiso       1.00
        O9          O  0.9813224  0.8027176  0.4525889    0.00000       Uiso       1.00
      H361          H  0.0013405  0.7752473  0.4475296    0.00000       Uiso       1.00
      H362          H  0.0024919  0.7395951  0.4466933    0.00000       Uiso       1.00
      H363          H  0.9258615  0.7076304  0.4614369    0.00000       Uiso       1.00
      C622          C  0.9414572  0.7821041  0.4562164    0.00000       Uiso       1.00
      C623          C  0.9204082  0.7620776  0.4567870    0.00000       Uiso       1.00
      C624          C  0.8990844  0.7629865  0.4593955    0.00000       Uiso       1.00
      C625          C  0.8784509  0.7424796  0.4590107    0.00000       Uiso       1.00
      C626          C  0.8790544  0.7201888  0.4546189    0.00000       Uiso       1.00
      C627          C  0.9009008  0.7195665  0.4514932    0.00000       Uiso       1.00
      C628          C  0.9210784  0.7404791  0.4542888    0.00000       Uiso       1.00
       O10          O  0.9439773  0.8044103  0.4579927    0.00000       Uiso       1.00
      H364          H  0.8984628  0.7797251  0.4618283    0.00000       Uiso       1.00
      H365          H  0.8622232  0.7443556  0.4619886    0.00000       Uiso       1.00
      H366          H  0.9027341  0.7024916  0.4454595    0.00000       Uiso       1.00
      C629          C  0.9616349  0.6357171  0.4561493    0.00000       Uiso       1.00
      C630          C  0.9620929  0.6567583  0.4566982    0.00000       Uiso       1.00
      C631          C  0.9817386  0.6780710  0.4592547    0.00000       Uiso       1.00
      C632          C  0.9822503  0.6986955  0.4588544    0.00000       Uiso       1.00
      C633          C  0.9637225  0.6980978  0.4545038    0.00000       Uiso       1.00
      C634          C  0.9443604  0.6762608  0.4514267    0.00000       Uiso       1.00
      C635          C  0.9423060  0.6560938  0.4542338    0.00000       Uiso       1.00
       O11          O  0.9796491  0.6331965  0.4579173    0.00000       Uiso       1.00
      H367          H  0.9966793  0.6786944  0.4616696    0.00000       Uiso       1.00
      H368          H  0.9973956  0.7149137  0.4617960    0.00000       Uiso       1.00
      H369          H  0.9314655  0.6744158  0.4454113    0.00000       Uiso       1.00
      C636          C  0.7950835  0.6155875  0.4562180    0.00000       Uiso       1.00
      C637          C  0.8151144  0.6151398  0.4567819    0.00000       Uiso       1.00
      C638          C  0.8142248  0.5954914  0.4593307    0.00000       Uiso       1.00
      C639          C  0.8347377  0.5949748  0.4589261    0.00000       Uiso       1.00
      C640          C  0.8570193  0.6135089  0.4545876    0.00000       Uiso       1.00
      C641          C  0.8576192  0.6328820  0.4515283    0.00000       Uiso       1.00
      C642          C  0.8366981  0.6349326  0.4543306    0.00000       Uiso       1.00
       O12          O  0.7727901  0.5975587  0.4579602    0.00000       Uiso       1.00
      H370          H  0.7974908  0.5805493  0.4617364    0.00000       Uiso       1.00
      H371          H  0.8328676  0.5798195  0.4618518    0.00000       Uiso       1.00
      H372          H  0.8746857  0.6457857  0.4455246    0.00000       Uiso       1.00
        B4          B  0.7598233  0.6076949  0.4556917    0.00000       Uiso       1.00
        B5          B  0.9695020  0.6078300  0.4556690    0.00000       Uiso       1.00
        B6          B  0.9693559  0.8173644  0.4556968    0.00000       Uiso       1.00
       Si1         Si  0.3822440  0.5695909  0.3822660    0.00000       Uiso       1.00
        B7          B  0.3903373  0.5408365  0.3911428    0.00000       Uiso       1.00
       O13          O  0.3794214  0.5592263  0.4022367    0.00000       Uiso       1.00
       O14          O  0.4022232  0.5592390  0.3547640    0.00000       Uiso       1.00
        B8          B  0.3911343  0.5408401  0.3365485    0.00000       Uiso       1.00
        B9          B  0.3365306  0.5408337  0.3903482    0.00000       Uiso       1.00
       O15          O  0.3547403  0.5592151  0.3794210    0.00000       Uiso       1.00
       O16          O  0.3888987  0.5214013  0.3684616    0.00000       Uiso       1.00
       O17          O  0.3684498  0.5214095  0.3412342    0.00000       Uiso       1.00
       O18          O  0.3412229  0.5214170  0.3889322    0.00000       Uiso       1.00
       Si2         Si  0.3628259  0.5113301  0.3628507    0.00000       Uiso       1.00
       O19          O  0.3925183  0.6004015  0.3925252    0.00000       Uiso       1.00
      H373          H  0.3801008  0.6048862  0.4082069    0.00000       Uiso       1.00
       O20          O  0.3525641  0.4805187  0.3525870    0.00000       Uiso       1.00
      H374          H  0.3376790  0.4760250  0.3498458    0.00000       Uiso       1.00
       Si3         Si  0.3822588  0.1949208  0.3822484    0.00000       Uiso       1.00
       B10          B  0.3911363  0.2406451  0.3903416    0.00000       Uiso       1.00
       O21          O  0.4022300  0.2224331  0.3794255    0.00000       Uiso       1.00
       O22          O  0.3547566  0.1977502  0.4022279    0.00000       Uiso       1.00
       B11          B  0.3365403  0.1868453  0.3911397    0.00000       Uiso       1.00
       B12          B  0.3903399  0.1860476  0.3365360    0.00000       Uiso       1.00
       O23          O  0.3794129  0.1749486  0.3547454    0.00000       Uiso       1.00
       O24          O  0.3684545  0.2359612  0.3889036    0.00000       Uiso       1.00
       O25          O  0.3412257  0.1882778  0.3684559    0.00000       Uiso       1.00
       O26          O  0.3889243  0.2087408  0.3412284    0.00000       Uiso       1.00
       Si4         Si  0.3628426  0.2143495  0.3628317    0.00000       Uiso       1.00
       O27          O  0.3925182  0.1846429  0.3925220    0.00000       Uiso       1.00
      H375          H  0.4082001  0.1834222  0.3801043    0.00000       Uiso       1.00
       O28          O  0.3525786  0.2246360  0.3525706    0.00000       Uiso       1.00
      H376          H  0.3498369  0.2115039  0.3376859    0.00000       Uiso       1.00
      C643          C  0.7960495  0.1240203  0.9624927    0.00000       Uiso       1.00
      C644          C  0.8166424  0.1252526  0.9635740    0.00000       Uiso       1.00
      C645          C  0.8172976  0.1276463  0.9849333    0.00000       Uiso       1.00
      C646          C  0.8376502  0.1276360  0.9853601    0.00000       Uiso       1.00
      C647          C  0.8573356  0.1238672  0.9640857    0.00000       Uiso       1.00
      C648          C  0.8561376  0.1211274  0.9426791    0.00000       Uiso       1.00
      C649          C  0.8368958  0.1234837  0.9423520    0.00000       Uiso       1.00
       O29          O  0.7744566  0.1245357  0.9813218    0.00000       Uiso       1.00
      H377          H  0.8019264  0.1295479  0.0013322    0.00000       Uiso       1.00
      H378          H  0.8375621  0.1303424  0.0024634    0.00000       Uiso       1.00
      H379          H  0.8695165  0.1156065  0.9258398    0.00000       Uiso       1.00
      C650          C  0.9427184  0.1240910  0.7960722    0.00000       Uiso       1.00
      C651          C  0.9222816  0.1253362  0.8166710    0.00000       Uiso       1.00
      C652          C  0.9026533  0.1277180  0.8173265    0.00000       Uiso       1.00
      C653          C  0.8818624  0.1276993  0.8376787    0.00000       Uiso       1.00
      C654          C  0.8796855  0.1239276  0.8573609    0.00000       Uiso       1.00
      C655          C  0.8995643  0.1212114  0.8561646    0.00000       Uiso       1.00
      C656          C  0.9214903  0.1235791  0.8369251    0.00000       Uiso       1.00
       O30          O  0.9459809  0.1245754  0.7744705    0.00000       Uiso       1.00
      H380          H  0.9035141  0.1296057  0.8019547    0.00000       Uiso       1.00
      H381          H  0.8675481  0.1303945  0.8375872    0.00000       Uiso       1.00
      H382          H  0.8975171  0.1156913  0.8695356    0.00000       Uiso       1.00
      C657          C  0.9624990  0.1240659  0.9427078    0.00000       Uiso       1.00
      C658          C  0.9635879  0.1253312  0.9222814    0.00000       Uiso       1.00
      C659          C  0.9849540  0.1277478  0.9026724    0.00000       Uiso       1.00
      C660          C  0.9853900  0.1277606  0.8818883    0.00000       Uiso       1.00
      C661          C  0.9641168  0.1239924  0.8797053    0.00000       Uiso       1.00
      C662          C  0.9427043  0.1212425  0.8995667    0.00000       Uiso       1.00
      C663          C  0.9423680  0.1235679  0.9214837    0.00000       Uiso       1.00
       O31          O  0.9813300  0.1245784  0.9459806    0.00000       Uiso       1.00
      H383          H  0.0013464  0.1296381  0.9035504    0.00000       Uiso       1.00
      H384          H  0.0024963  0.1304744  0.8675830    0.00000       Uiso       1.00
      H385          H  0.9258660  0.1157291  0.8975074    0.00000       Uiso       1.00
      C664          C  0.9414647  0.1209500  0.9616056    0.00000       Uiso       1.00
      C665          C  0.9204155  0.1203788  0.9620578    0.00000       Uiso       1.00
      C666          C  0.8990922  0.1177698  0.9816825    0.00000       Uiso       1.00
      C667          C  0.8784583  0.1181541  0.9821942    0.00000       Uiso       1.00
      C668          C  0.8790610  0.1225458  0.9636915    0.00000       Uiso       1.00
      C669          C  0.9009068  0.1256720  0.9443483    0.00000       Uiso       1.00
      C670          C  0.9210846  0.1228770  0.9422874    0.00000       Uiso       1.00
       O32          O  0.9439857  0.1191738  0.9796154    0.00000       Uiso       1.00
      H386          H  0.8984712  0.1153371  0.9966100    0.00000       Uiso       1.00
      H387          H  0.8622310  0.1151759  0.9973205    0.00000       Uiso       1.00
      H388          H  0.9027396  0.1317057  0.9314736    0.00000       Uiso       1.00
      C671          C  0.9616355  0.1210175  0.7951076    0.00000       Uiso       1.00
      C672          C  0.9620944  0.1204687  0.8151419    0.00000       Uiso       1.00
      C673          C  0.9817404  0.1179128  0.8142521    0.00000       Uiso       1.00
      C674          C  0.9822531  0.1183130  0.8347652    0.00000       Uiso       1.00
      C675          C  0.9637257  0.1226630  0.8570462    0.00000       Uiso       1.00
      C676          C  0.9443634  0.1257396  0.8576486    0.00000       Uiso       1.00
      C677          C  0.9423081  0.1229325  0.8367290    0.00000       Uiso       1.00
       O33          O  0.9796491  0.1192500  0.7728045    0.00000       Uiso       1.00
      H389          H  0.9966808  0.1154982  0.7975197    0.00000       Uiso       1.00
      H390          H  0.9973985  0.1153718  0.8328964    0.00000       Uiso       1.00
      H391          H  0.9314689  0.1317546  0.8747141    0.00000       Uiso       1.00
      C678          C  0.7950877  0.1209446  0.9414635    0.00000       Uiso       1.00
      C679          C  0.8151180  0.1203813  0.9204208    0.00000       Uiso       1.00
      C680          C  0.8142275  0.1178324  0.8991132    0.00000       Uiso       1.00
      C681          C  0.8347397  0.1182375  0.8784879    0.00000       Uiso       1.00
      C682          C  0.8570217  0.1225765  0.8790785    0.00000       Uiso       1.00
      C683          C  0.8576226  0.1256358  0.9009110    0.00000       Uiso       1.00
      C684          C  0.8367020  0.1228330  0.9210806    0.00000       Uiso       1.00
       O34          O  0.7727940  0.1192019  0.9439864    0.00000       Uiso       1.00
      H392          H  0.7974933  0.1154263  0.8984996    0.00000       Uiso       1.00
      H393          H  0.8328691  0.1153119  0.8622772    0.00000       Uiso       1.00
      H394          H  0.8746896  0.1316399  0.9027513    0.00000       Uiso       1.00
       B13          B  0.7598281  0.1214701  0.9693582    0.00000       Uiso       1.00
       B14          B  0.9695013  0.1214980  0.7598336    0.00000       Uiso       1.00
       B15          B  0.9693642  0.1214702  0.9694864    0.00000       Uiso       1.00
       Si5         Si  0.3822575  0.1949018  0.0075957    0.00000       Uiso       1.00
       B16          B  0.3911365  0.1868090  0.0363494    0.00000       Uiso       1.00
       O35          O  0.4022295  0.1977252  0.0179593    0.00000       Uiso       1.00
       O36          O  0.3547555  0.1749220  0.0179488    0.00000       Uiso       1.00
       B17          B  0.3365396  0.1860095  0.0363483    0.00000       Uiso       1.00
       B18          B  0.3903397  0.2406136  0.0363524    0.00000       Uiso       1.00
       O37          O  0.3794118  0.2224042  0.0179717    0.00000       Uiso       1.00
       O38          O  0.3684552  0.1882464  0.0557856    0.00000       Uiso       1.00
       O39          O  0.3412257  0.2086931  0.0557787    0.00000       Uiso       1.00
       O40          O  0.3889249  0.2359213  0.0557691    0.00000       Uiso       1.00
       Si6         Si  0.3628435  0.2143178  0.0658571    0.00000       Uiso       1.00
       O41          O  0.3925166  0.1846293  0.9767852    0.00000       Uiso       1.00
      H395          H  0.4081984  0.1970471  0.9722999    0.00000       Uiso       1.00
       O42          O  0.3525805  0.2245784  0.0966687    0.00000       Uiso       1.00
      H396          H  0.3498389  0.2394627  0.1011625    0.00000       Uiso       1.00
      C685          C  0.7960578  0.6146787  0.9426690    0.00000       Uiso       1.00
      C686          C  0.8166500  0.6135980  0.9222269    0.00000       Uiso       1.00
      C687          C  0.8173045  0.5922391  0.9026066    0.00000       Uiso       1.00
      C688          C  0.8376567  0.5918128  0.8818164    0.00000       Uiso       1.00
      C689          C  0.8573421  0.6130874  0.8796358    0.00000       Uiso       1.00
      C690          C  0.8561447  0.6344935  0.8995001    0.00000       Uiso       1.00
      C691          C  0.8369036  0.6348202  0.9214255    0.00000       Uiso       1.00
       O43          O  0.7744646  0.5958495  0.9459492    0.00000       Uiso       1.00
      H397          H  0.8019339  0.5758396  0.9034806    0.00000       Uiso       1.00
      H398          H  0.8375687  0.5747093  0.8675076    0.00000       Uiso       1.00
      H399          H  0.8695236  0.6513328  0.8974388    0.00000       Uiso       1.00
      C692          C  0.9427286  0.7811000  0.9624844    0.00000       Uiso       1.00
      C693          C  0.9222916  0.7605012  0.9635686    0.00000       Uiso       1.00
      C694          C  0.9026640  0.7598450  0.9849235    0.00000       Uiso       1.00
      C695          C  0.8818729  0.7394928  0.9853445    0.00000       Uiso       1.00
      C696          C  0.8796952  0.7198108  0.9640679    0.00000       Uiso       1.00
      C697          C  0.8995734  0.7210076  0.9426690    0.00000       Uiso       1.00
      C698          C  0.9214996  0.7402474  0.9423493    0.00000       Uiso       1.00
       O44          O  0.9459919  0.8027015  0.9813074    0.00000       Uiso       1.00
      H400          H  0.9035247  0.7752160  0.0013213    0.00000       Uiso       1.00
      H401          H  0.8675584  0.7395833  0.0024452    0.00000       Uiso       1.00
      H402          H  0.8975256  0.7076369  0.9258254    0.00000       Uiso       1.00
      C699          C  0.9625035  0.6344675  0.7960466    0.00000       Uiso       1.00
      C700          C  0.9635932  0.6548935  0.8166488    0.00000       Uiso       1.00
      C701          C  0.9849595  0.6745028  0.8173075    0.00000       Uiso       1.00
      C702          C  0.9853963  0.6952865  0.8376678    0.00000       Uiso       1.00
      C703          C  0.9641234  0.6974690  0.8573562    0.00000       Uiso       1.00
      C704          C  0.9427108  0.6776074  0.8561582    0.00000       Uiso       1.00
      C705          C  0.9423738  0.6556907  0.8369036    0.00000       Uiso       1.00
       O45          O  0.9813339  0.6311953  0.7744552    0.00000       Uiso       1.00
      H403          H  0.0013515  0.6736252  0.8019264    0.00000       Uiso       1.00
      H404          H  0.0025027  0.7095920  0.8375793    0.00000       Uiso       1.00
      H405          H  0.9258727  0.6796662  0.8695427    0.00000       Uiso       1.00
      C706          C  0.9414690  0.6155695  0.7950680    0.00000       Uiso       1.00
      C707          C  0.9204202  0.6151168  0.8150944    0.00000       Uiso       1.00
      C708          C  0.8990967  0.5954919  0.8141848    0.00000       Uiso       1.00
      C709          C  0.8784633  0.5949796  0.8346916    0.00000       Uiso       1.00
      C710          C  0.8790669  0.6134821  0.8569828    0.00000       Uiso       1.00
      C711          C  0.9009129  0.6328256  0.8576056    0.00000       Uiso       1.00
      C712          C  0.9210902  0.6348869  0.8366932    0.00000       Uiso       1.00
       O46          O  0.9439891  0.5975600  0.7727615    0.00000       Uiso       1.00
      H406          H  0.8984751  0.5805646  0.7974460    0.00000       Uiso       1.00
      H407          H  0.8622358  0.5798532  0.8328151    0.00000       Uiso       1.00
      H408          H  0.9027463  0.6457001  0.8746808    0.00000       Uiso       1.00
      C713          C  0.9616452  0.7820652  0.9414581    0.00000       Uiso       1.00
      C714          C  0.9621034  0.7620312  0.9204165    0.00000       Uiso       1.00
      C715          C  0.9817488  0.7629215  0.8991040    0.00000       Uiso       1.00
      C716          C  0.9822607  0.7424088  0.8784791    0.00000       Uiso       1.00
      C717          C  0.9637333  0.7201277  0.8790763    0.00000       Uiso       1.00
      C718          C  0.9443715  0.7195248  0.9009132    0.00000       Uiso       1.00
      C719          C  0.9423169  0.7404439  0.9210805    0.00000       Uiso       1.00
       O47          O  0.9796590  0.8043683  0.9439792    0.00000       Uiso       1.00
      H409          H  0.9966891  0.7796540  0.8984810    0.00000       Uiso       1.00
      H410          H  0.9974057  0.7442779  0.8622609    0.00000       Uiso       1.00
      H411          H  0.9314771  0.7024593  0.9027579    0.00000       Uiso       1.00
      C720          C  0.7950965  0.6357076  0.9615839    0.00000       Uiso       1.00
      C721          C  0.8151270  0.6567505  0.9620320    0.00000       Uiso       1.00
      C722          C  0.8142371  0.6780576  0.9816807    0.00000       Uiso       1.00
      C723          C  0.8347497  0.6986831  0.9821979    0.00000       Uiso       1.00
      C724          C  0.8570312  0.6980931  0.9636639    0.00000       Uiso       1.00
      C725          C  0.8576314  0.6762610  0.9442906    0.00000       Uiso       1.00
      C726          C  0.8367106  0.6560911  0.9422395    0.00000       Uiso       1.00
       O48          O  0.7728032  0.6331841  0.9796123    0.00000       Uiso       1.00
      H412          H  0.7975033  0.6786708  0.9966226    0.00000       Uiso       1.00
      H413          H  0.8328794  0.7148935  0.9973534    0.00000       Uiso       1.00
      H414          H  0.8746981  0.6744211  0.9313870    0.00000       Uiso       1.00
       B19          B  0.7598369  0.6078125  0.9694755    0.00000       Uiso       1.00
       B20          B  0.9695119  0.8173388  0.9693459    0.00000       Uiso       1.00
       B21          B  0.9693674  0.6076896  0.7598078    0.00000       Uiso       1.00
       Si7         Si  0.0076017  0.1949342  0.3822432    0.00000       Uiso       1.00
       B22          B  0.0363565  0.2406589  0.3911214    0.00000       Uiso       1.00
       O49          O  0.0179662  0.2224458  0.4022146    0.00000       Uiso       1.00
       O50          O  0.0179543  0.1977656  0.3547417    0.00000       Uiso       1.00
       B23          B  0.0363538  0.1868617  0.3365258    0.00000       Uiso       1.00
       B24          B  0.0363591  0.1860601  0.3903242    0.00000       Uiso       1.00
       O51          O  0.0179776  0.1749616  0.3793971    0.00000       Uiso       1.00
       O52          O  0.0557926  0.2359765  0.3684402    0.00000       Uiso       1.00
       O53          O  0.0557847  0.1882938  0.3412111    0.00000       Uiso       1.00
       O54          O  0.0557763  0.2087539  0.3889090    0.00000       Uiso       1.00
       Si8         Si  0.0658640  0.2143646  0.3628281    0.00000       Uiso       1.00
       O55          O  0.9767908  0.1846554  0.3925022    0.00000       Uiso       1.00
      H415          H  0.9723058  0.1834336  0.4081836    0.00000       Uiso       1.00
       O56          O  0.0966761  0.2246520  0.3525646    0.00000       Uiso       1.00
      H416          H  0.1011699  0.2115197  0.3498228    0.00000       Uiso       1.00
