data_85
_audit_creation_date              0000-00-00
_audit_creation_method            'LanYouShi'
_symmetry_space_group_name_H-M    'P1'
_cell_length_a                    66.9181976
_cell_length_b                    66.9181976
_cell_length_c                    66.9181976
_cell_angle_alpha                 119.9987030
_cell_angle_beta                  119.9987030
_cell_angle_gamma                 60.0000000
loop_
_atom_site_label
_atom_site_type_symbol
_atom_site_fract_x
_atom_site_fract_y
_atom_site_fract_z
_atom_site_U_iso_or_equiv
_atom_site_adp_type
_atom_site_occupancy
        C1          C  0.4567243  0.7374598  0.5970939    0.00000       Uiso       1.00
        C2          C  0.4585223  0.7247508  0.5736351    0.00000       Uiso       1.00
        C3          C  0.4624515  0.6992674  0.5628595    0.00000       Uiso       1.00
        C4          C  0.4585216  0.7247501  0.6096410    0.00000       Uiso       1.00
        C5          C  0.4622938  0.6993489  0.5988911    0.00000       Uiso       1.00
        C6          C  0.4644817  0.6859409  0.5752741    0.00000       Uiso       1.00
        C7          C  0.4029135  0.4029139  0.2625479    0.00000       Uiso       1.00
        C8          C  0.3903658  0.4263729  0.2752571    0.00000       Uiso       1.00
        C9          C  0.4011149  0.4372520  0.3006579    0.00000       Uiso       1.00
       C10          C  0.4263725  0.3903663  0.2752571    0.00000       Uiso       1.00
       C11          C  0.4371476  0.4011446  0.3007402    0.00000       Uiso       1.00
       C12          C  0.4247311  0.4248548  0.3140653    0.00000       Uiso       1.00
       C13          C  0.4029081  0.4029085  0.5432776    0.00000       Uiso       1.00
       C14          C  0.4263675  0.3903612  0.5414800    0.00000       Uiso       1.00
       C15          C  0.4372458  0.4011094  0.5377049    0.00000       Uiso       1.00
       C16          C  0.3903607  0.4263678  0.5414800    0.00000       Uiso       1.00
       C17          C  0.4011376  0.4371420  0.5375470    0.00000       Uiso       1.00
       C18          C  0.4248480  0.4247248  0.5355137    0.00000       Uiso       1.00
       C19          C  0.7374592  0.4567248  0.5970938    0.00000       Uiso       1.00
       C20          C  0.7247496  0.4585222  0.6096410    0.00000       Uiso       1.00
       C21          C  0.6992663  0.4624510  0.5988624    0.00000       Uiso       1.00
       C22          C  0.7247502  0.4585229  0.5736350    0.00000       Uiso       1.00
       C23          C  0.6993493  0.4622941  0.5627555    0.00000       Uiso       1.00
       C24          C  0.6859409  0.4644811  0.5751518    0.00000       Uiso       1.00
       C25          C  0.4999990  0.5000011  0.5000002    0.00000       Uiso       1.00
       C26          C  0.3645265  0.4405789  0.5434883    0.00000       Uiso       1.00
        H1          H  0.3586048  0.4560877  0.5418967    0.00000       Uiso       1.00
        H2          H  0.3651703  0.4428191  0.5589567    0.00000       Uiso       1.00
        H3          H  0.3538675  0.4315967  0.5308501    0.00000       Uiso       1.00
       C27          C  0.4405839  0.3645323  0.2616260    0.00000       Uiso       1.00
        H4          H  0.4560924  0.3586103  0.2728043    0.00000       Uiso       1.00
        H5          H  0.4428246  0.3651766  0.2490421    0.00000       Uiso       1.00
        H6          H  0.4316015  0.3538732  0.2546228    0.00000       Uiso       1.00
       C28          C  0.4565129  0.7383810  0.6354748    0.00000       Uiso       1.00
        H7          H  0.4581044  0.7272023  0.6413964    0.00000       Uiso       1.00
        H8          H  0.4410442  0.7509652  0.6348308    0.00000       Uiso       1.00
        H9          H  0.4691510  0.7453841  0.6461338    0.00000       Uiso       1.00
       C29          C  0.7383819  0.4565150  0.5594242    0.00000       Uiso       1.00
       H10          H  0.7272037  0.4581068  0.5439158    0.00000       Uiso       1.00
       H11          H  0.7509661  0.4410462  0.5571837    0.00000       Uiso       1.00
       H12          H  0.7453851  0.4691531  0.5684065    0.00000       Uiso       1.00
       C30          C  0.4565144  0.7383825  0.5594243    0.00000       Uiso       1.00
       H13          H  0.4581062  0.7272042  0.5439158    0.00000       Uiso       1.00
       H14          H  0.4691527  0.7453855  0.5684066    0.00000       Uiso       1.00
       H15          H  0.4410457  0.7509667  0.5571839    0.00000       Uiso       1.00
       C31          C  0.7383804  0.4565135  0.6354748    0.00000       Uiso       1.00
       H16          H  0.7272017  0.4581048  0.6413963    0.00000       Uiso       1.00
       H17          H  0.7453834  0.4691517  0.6461338    0.00000       Uiso       1.00
       H18          H  0.7509646  0.4410448  0.6348308    0.00000       Uiso       1.00
       C32          C  0.3645318  0.4405843  0.2616260    0.00000       Uiso       1.00
       H19          H  0.3586099  0.4560928  0.2728043    0.00000       Uiso       1.00
       H20          H  0.3538728  0.4316019  0.2546229    0.00000       Uiso       1.00
       H21          H  0.3651761  0.4428250  0.2490421    0.00000       Uiso       1.00
       C33          C  0.4405785  0.3645269  0.5434882    0.00000       Uiso       1.00
       H22          H  0.4560873  0.3586052  0.5418967    0.00000       Uiso       1.00
       H23          H  0.4315962  0.3538679  0.5308501    0.00000       Uiso       1.00
       H24          H  0.4428186  0.3651706  0.5589566    0.00000       Uiso       1.00
       C34          C  0.6859806  0.4651502  0.6138102    0.00000       Uiso       1.00
       H25          H  0.6691189  0.4676793  0.6044477    0.00000       Uiso       1.00
       H26          H  0.6876640  0.4787457  0.6284735    0.00000       Uiso       1.00
       H27          H  0.6929631  0.4506910  0.6177303    0.00000       Uiso       1.00
       C35          C  0.6864828  0.4635477  0.5366434    0.00000       Uiso       1.00
       H28          H  0.6695969  0.4661246  0.5316014    0.00000       Uiso       1.00
       H29          H  0.6936867  0.4486065  0.5257747    0.00000       Uiso       1.00
       H30          H  0.6882275  0.4766853  0.5364460    0.00000       Uiso       1.00
       C36          C  0.3866152  0.4633639  0.3135245    0.00000       Uiso       1.00
       H31          H  0.3958815  0.4684056  0.3304104    0.00000       Uiso       1.00
       H32          H  0.3715355  0.4635607  0.3117792    0.00000       Uiso       1.00
       H33          H  0.3834839  0.4742334  0.3063214    0.00000       Uiso       1.00
       C37          C  0.4626820  0.3861953  0.3140231    0.00000       Uiso       1.00
       H34          H  0.4676530  0.3955563  0.3308850    0.00000       Uiso       1.00
       H35          H  0.4740780  0.3822768  0.3070402    0.00000       Uiso       1.00
       H36          H  0.4620671  0.3715309  0.3123383    0.00000       Uiso       1.00
       C38          C  0.3861828  0.4626748  0.5348455    0.00000       Uiso       1.00
       H37          H  0.3955408  0.4676480  0.5323135    0.00000       Uiso       1.00
       H38          H  0.3822634  0.4740710  0.5493050    0.00000       Uiso       1.00
       H39          H  0.3715189  0.4620564  0.5212515    0.00000       Uiso       1.00
       C39          C  0.4633562  0.3866096  0.5364459    0.00000       Uiso       1.00
       H40          H  0.4683965  0.3958765  0.5338668    0.00000       Uiso       1.00
       H41          H  0.4635513  0.3715306  0.5233081    0.00000       Uiso       1.00
       H42          H  0.4742278  0.3834769  0.5513860    0.00000       Uiso       1.00
       C40          C  0.4635461  0.6864814  0.6133890    0.00000       Uiso       1.00
       H43          H  0.4661237  0.6695954  0.6041220    0.00000       Uiso       1.00
       H44          H  0.4486043  0.6936845  0.6165193    0.00000       Uiso       1.00
       H45          H  0.4766828  0.6882262  0.6284689    0.00000       Uiso       1.00
       C41          C  0.4651480  0.6859828  0.5373245    0.00000       Uiso       1.00
       H46          H  0.4676776  0.6691210  0.5323548    0.00000       Uiso       1.00
       H47          H  0.4787423  0.6876667  0.5379378    0.00000       Uiso       1.00
       H48          H  0.4506876  0.6929654  0.5259289    0.00000       Uiso       1.00
       C42          C  0.4689720  0.6584182  0.5638876    0.00000       Uiso       1.00
       C43          C  0.4596474  0.6470166  0.5382458    0.00000       Uiso       1.00
       C44          C  0.4639352  0.6214381  0.5276375    0.00000       Uiso       1.00
       C45          C  0.4826995  0.6432119  0.5785993    0.00000       Uiso       1.00
       C46          C  0.4869165  0.6176698  0.5682375    0.00000       Uiso       1.00
       C47          C  0.4775572  0.6067131  0.5426726    0.00000       Uiso       1.00
       C48          C  0.4361145  0.4365006  0.3415859    0.00000       Uiso       1.00
       C49          C  0.4214016  0.4526821  0.3567917    0.00000       Uiso       1.00
       C50          C  0.4317618  0.4636464  0.3823331    0.00000       Uiso       1.00
       C51          C  0.4617545  0.4315962  0.3529866    0.00000       Uiso       1.00
       C52          C  0.4723600  0.4422795  0.3785632    0.00000       Uiso       1.00
       C53          C  0.4573256  0.4584071  0.3932882    0.00000       Uiso       1.00
       C54          C  0.4364946  0.4361069  0.5310197    0.00000       Uiso       1.00
       C55          C  0.4526858  0.4213915  0.5172915    0.00000       Uiso       1.00
       C56          C  0.4636528  0.4317522  0.5130745    0.00000       Uiso       1.00
       C57          C  0.4315816  0.4617477  0.5403451    0.00000       Uiso       1.00
       C58          C  0.4422643  0.4723534  0.5360564    0.00000       Uiso       1.00
       C59          C  0.4584029  0.4573201  0.5224354    0.00000       Uiso       1.00
       C60          C  0.6584187  0.4689715  0.5635059    0.00000       Uiso       1.00
       C61          C  0.6470175  0.4596384  0.5684128    0.00000       Uiso       1.00
       C62          C  0.6214389  0.4639286  0.5577326    0.00000       Uiso       1.00
       C63          C  0.6432126  0.4827065  0.5473230    0.00000       Uiso       1.00
       C64          C  0.6176707  0.4869229  0.5363591    0.00000       Uiso       1.00
       C65          C  0.6067142  0.4775580  0.5416021    0.00000       Uiso       1.00
       C66          C  0.6102270  0.4548688  0.5629348    0.00000       Uiso       1.00
       C67          C  0.5847988  0.4594783  0.5525356    0.00000       Uiso       1.00
       C68          C  0.4978343  0.4370828  0.3897740    0.00000       Uiso       1.00
       C69          C  0.5082535  0.4474842  0.4152009    0.00000       Uiso       1.00
       C70          C  0.5148028  0.4196032  0.3742603    0.00000       Uiso       1.00
       H49          H  0.5313186  0.4180768  0.3845497    0.00000       Uiso       1.00
       H50          H  0.5106742  0.4259666  0.3622810    0.00000       Uiso       1.00
       H51          H  0.5128830  0.4039833  0.3663799    0.00000       Uiso       1.00
       C71          C  0.5362656  0.4409772  0.4266382    0.00000       Uiso       1.00
       H52          H  0.5405891  0.4492992  0.4438043    0.00000       Uiso       1.00
       H53          H  0.5417857  0.4458004  0.4196472    0.00000       Uiso       1.00
       H54          H  0.5437021  0.4238179  0.4235185    0.00000       Uiso       1.00
       C72          C  0.5733548  0.4494181  0.5590438    0.00000       Uiso       1.00
       H55          H  0.5561884  0.4539419  0.5507215    0.00000       Uiso       1.00
       H56          H  0.5764740  0.4560226  0.5762028    0.00000       Uiso       1.00
       H57          H  0.5803421  0.4320839  0.5542217    0.00000       Uiso       1.00
       C73          C  0.6257461  0.4398679  0.5804161    0.00000       Uiso       1.00
       H58          H  0.6154590  0.4351705  0.5819494    0.00000       Uiso       1.00
       H59          H  0.6336303  0.4495269  0.5960330    0.00000       Uiso       1.00
       H60          H  0.6377226  0.4256524  0.5740498    0.00000       Uiso       1.00
       C74          C  0.4441020  0.6627467  0.5214548    0.00000       Uiso       1.00
       H61          H  0.4392481  0.6525494  0.5049223    0.00000       Uiso       1.00
       H62          H  0.4534885  0.6708391  0.5232398    0.00000       Uiso       1.00
       H63          H  0.4299795  0.6745553  0.5258437    0.00000       Uiso       1.00
       C75          C  0.4938716  0.6544701  0.6064885    0.00000       Uiso       1.00
       H64          H  0.5024521  0.6420365  0.6137118    0.00000       Uiso       1.00
       H65          H  0.4811840  0.6666578  0.6130736    0.00000       Uiso       1.00
       H66          H  0.5048705  0.6616608  0.6098842    0.00000       Uiso       1.00
       C76          C  0.6544725  0.4938850  0.5418729    0.00000       Uiso       1.00
       H67          H  0.6420397  0.5024706  0.5308008    0.00000       Uiso       1.00
       H68          H  0.6666597  0.4811999  0.5347859    0.00000       Uiso       1.00
       H69          H  0.6616643  0.5048803  0.5566695    0.00000       Uiso       1.00
       C77          C  0.6627531  0.4440799  0.5853762    0.00000       Uiso       1.00
       H70          H  0.6525586  0.4392200  0.5868549    0.00000       Uiso       1.00
       H71          H  0.6708485  0.4534608  0.6010718    0.00000       Uiso       1.00
       H72          H  0.6745592  0.4299613  0.5786664    0.00000       Uiso       1.00
       C78          C  0.3935138  0.4581297  0.3455341    0.00000       Uiso       1.00
       H73          H  0.3862897  0.4692011  0.3579676    0.00000       Uiso       1.00
       H74          H  0.3901254  0.4433318  0.3383435    0.00000       Uiso       1.00
       H75          H  0.3869225  0.4652168  0.3333465    0.00000       Uiso       1.00
       C79          C  0.4785523  0.4146340  0.3372628    0.00000       Uiso       1.00
       H76          H  0.4950825  0.4131623  0.3474639    0.00000       Uiso       1.00
       H77          H  0.4741589  0.4213405  0.3254554    0.00000       Uiso       1.00
       H78          H  0.4767779  0.3989356  0.3291695    0.00000       Uiso       1.00
       C80          C  0.4146097  0.4785473  0.5558942    0.00000       Uiso       1.00
       H79          H  0.4131334  0.4950779  0.5607456    0.00000       Uiso       1.00
       H80          H  0.4213121  0.4741606  0.5700179    0.00000       Uiso       1.00
       H81          H  0.3989139  0.4767671  0.5465112    0.00000       Uiso       1.00
       C81          C  0.4581371  0.3935032  0.5061229    0.00000       Uiso       1.00
       H82          H  0.4692138  0.3862735  0.4975412    0.00000       Uiso       1.00
       H83          H  0.4433412  0.3901113  0.4951257    0.00000       Uiso       1.00
       H84          H  0.4652190  0.3869207  0.5188119    0.00000       Uiso       1.00
       C82          C  0.4819918  0.5809578  0.5321156    0.00000       Uiso       1.00
       C83          C  0.4730621  0.5699043  0.5065306    0.00000       Uiso       1.00
       C84          C  0.4781277  0.5442072  0.4960831    0.00000       Uiso       1.00
       C85          C  0.4956776  0.5662545  0.5471412    0.00000       Uiso       1.00
       C86          C  0.5003322  0.5406758  0.5365282    0.00000       Uiso       1.00
       C87          C  0.4916658  0.5289227  0.5108023    0.00000       Uiso       1.00
       C88          C  0.4678829  0.4691709  0.4190422    0.00000       Uiso       1.00
       C89          C  0.4528570  0.4852064  0.4337468    0.00000       Uiso       1.00
       C90          C  0.4634695  0.4955191  0.4593261    0.00000       Uiso       1.00
       C91          C  0.4934687  0.4635793  0.4300953    0.00000       Uiso       1.00
       C92          C  0.5039158  0.4737620  0.4557931    0.00000       Uiso       1.00
       C93          C  0.4891962  0.4902167  0.4710786    0.00000       Uiso       1.00
       C94          C  0.4691652  0.4678812  0.5180052    0.00000       Uiso       1.00
       C95          C  0.4852115  0.4528552  0.5043215    0.00000       Uiso       1.00
       C96          C  0.4955230  0.4634704  0.4996686    0.00000       Uiso       1.00
       C97          C  0.4635613  0.4934688  0.5269360    0.00000       Uiso       1.00
       C98          C  0.4737429  0.5039183  0.5218688    0.00000       Uiso       1.00
       C99          C  0.4902113  0.4891984  0.5083324    0.00000       Uiso       1.00
      C100          C  0.5809591  0.4819927  0.5308385    0.00000       Uiso       1.00
      C101          C  0.5699043  0.4730580  0.5364362    0.00000       Uiso       1.00
      C102          C  0.5442049  0.4781265  0.5262523    0.00000       Uiso       1.00
      C103          C  0.5662562  0.4956801  0.5147954    0.00000       Uiso       1.00
      C104          C  0.5406767  0.5003324  0.5044802    0.00000       Uiso       1.00
      C105          C  0.5289216  0.4916677  0.5097882    0.00000       Uiso       1.00
      C106          C  0.4474552  0.5082528  0.5405088    0.00000       Uiso       1.00
      C107          C  0.4370554  0.4978306  0.5451148    0.00000       Uiso       1.00
      C108          C  0.4903786  0.4273882  0.4951721    0.00000       Uiso       1.00
      C109          C  0.4797147  0.4169793  0.4994634    0.00000       Uiso       1.00
      C110          C  0.4594893  0.5847979  0.4917449    0.00000       Uiso       1.00
      C111          C  0.4548815  0.6102265  0.5021630    0.00000       Uiso       1.00
      C112          C  0.5048248  0.5774058  0.5726089    0.00000       Uiso       1.00
      C113          C  0.5005275  0.6027729  0.5830150    0.00000       Uiso       1.00
      C114          C  0.5774083  0.5048308  0.5096309    0.00000       Uiso       1.00
      C115          C  0.6027735  0.5005370  0.5202986    0.00000       Uiso       1.00
      C116          C  0.4273898  0.4903651  0.4225962    0.00000       Uiso       1.00
      C117          C  0.4169846  0.4797008  0.3972308    0.00000       Uiso       1.00
      C118          C  0.4398928  0.6257476  0.4852028    0.00000       Uiso       1.00
       H85          H  0.4351977  0.6154621  0.4686842    0.00000       Uiso       1.00
       H86          H  0.4495582  0.6336288  0.4871351    0.00000       Uiso       1.00
       H87          H  0.4256761  0.6377265  0.4893263    0.00000       Uiso       1.00
      C119          C  0.4494354  0.5733591  0.4637320    0.00000       Uiso       1.00
       H88          H  0.4407704  0.5858228  0.4565363    0.00000       Uiso       1.00
       H89          H  0.4386982  0.5655247  0.4596402    0.00000       Uiso       1.00
       H90          H  0.4626353  0.5616733  0.4577386    0.00000       Uiso       1.00
      C120          C  0.5199667  0.5618685  0.5895641    0.00000       Uiso       1.00
       H91          H  0.5246935  0.5721537  0.6060773    0.00000       Uiso       1.00
       H92          H  0.5341658  0.5499318  0.5853838    0.00000       Uiso       1.00
       H93          H  0.5103820  0.5539352  0.5876910    0.00000       Uiso       1.00
      C121          C  0.5110558  0.6141252  0.6109857    0.00000       Uiso       1.00
       H94          H  0.5196890  0.6016639  0.6181805    0.00000       Uiso       1.00
       H95          H  0.4980687  0.6260161  0.6172353    0.00000       Uiso       1.00
       H96          H  0.5219046  0.6216984  0.6147959    0.00000       Uiso       1.00
      C122          C  0.3890145  0.4857820  0.3858854    0.00000       Uiso       1.00
       H97          H  0.3818229  0.4968000  0.3983494    0.00000       Uiso       1.00
       H98          H  0.3852106  0.4711669  0.3783138    0.00000       Uiso       1.00
       H99          H  0.3827556  0.4931307  0.3739942    0.00000       Uiso       1.00
      C123          C  0.4104387  0.5077046  0.4381388    0.00000       Uiso       1.00
      H100          H  0.3939253  0.5092015  0.4278567    0.00000       Uiso       1.00
      H101          H  0.4123060  0.5233520  0.4460727    0.00000       Uiso       1.00
      H102          H  0.4146279  0.5012566  0.4500747    0.00000       Uiso       1.00
      C124          C  0.5618678  0.5199705  0.4922780    0.00000       Uiso       1.00
      H103          H  0.5721505  0.5247020  0.4907780    0.00000       Uiso       1.00
      H104          H  0.5499277  0.5341667  0.4987178    0.00000       Uiso       1.00
      H105          H  0.5539389  0.5103825  0.4766335    0.00000       Uiso       1.00
      C125          C  0.6141216  0.5110723  0.5142106    0.00000       Uiso       1.00
      H106          H  0.6016585  0.5197065  0.5031893    0.00000       Uiso       1.00
      H107          H  0.6260131  0.4980882  0.5068641    0.00000       Uiso       1.00
      H108          H  0.6216935  0.5219213  0.5288228    0.00000       Uiso       1.00
      C126          C  0.5077295  0.4104367  0.4800301    0.00000       Uiso       1.00
      H109          H  0.5092310  0.3939227  0.4753005    0.00000       Uiso       1.00
      H110          H  0.5233740  0.4123101  0.4896161    0.00000       Uiso       1.00
      H111          H  0.5012872  0.4146201  0.4658332    0.00000       Uiso       1.00
      C127          C  0.4858062  0.3890079  0.4889276    0.00000       Uiso       1.00
      H112          H  0.4968286  0.3818181  0.4802952    0.00000       Uiso       1.00
      H113          H  0.4711949  0.3851974  0.4780770    0.00000       Uiso       1.00
      H114          H  0.4931526  0.3827531  0.5019110    0.00000       Uiso       1.00
      C128          C  0.4409354  0.5362660  0.5505629    0.00000       Uiso       1.00
      H115          H  0.4299413  0.5434617  0.5592283    0.00000       Uiso       1.00
      H116          H  0.4334277  0.5422598  0.5373632    0.00000       Uiso       1.00
      H117          H  0.4554150  0.5403578  0.5612995    0.00000       Uiso       1.00
      C129          C  0.4195636  0.5147967  0.5601042    0.00000       Uiso       1.00
      H118          H  0.4180303  0.5313139  0.5647992    0.00000       Uiso       1.00
      H119          H  0.4259223  0.5106739  0.5743207    0.00000       Uiso       1.00
      H120          H  0.4039477  0.5128686  0.5504394    0.00000       Uiso       1.00
      C130          C  0.5159191  0.5249311  0.5533070    0.00000       Uiso       1.00
      H121          H  0.5174688  0.5082641  0.5436736    0.00000       Uiso       1.00
      H122          H  0.5082111  0.5302478  0.5646122    0.00000       Uiso       1.00
      H123          H  0.5316927  0.5265689  0.5619857    0.00000       Uiso       1.00
      C131          C  0.4693570  0.5329736  0.4679706    0.00000       Uiso       1.00
      H124          H  0.4738616  0.5157673  0.4633601    0.00000       Uiso       1.00
      H125          H  0.4767355  0.5363526  0.4615307    0.00000       Uiso       1.00
      H126          H  0.4520635  0.5398711  0.4616789    0.00000       Uiso       1.00
      C132          C  0.5329666  0.4693448  0.5343449    0.00000       Uiso       1.00
      H127          H  0.5157601  0.4738538  0.5262540    0.00000       Uiso       1.00
      H128          H  0.5363455  0.4767132  0.5515423    0.00000       Uiso       1.00
      H129          H  0.5398609  0.4520502  0.5302305    0.00000       Uiso       1.00
      C133          C  0.5249358  0.5159028  0.4875282    0.00000       Uiso       1.00
      H130          H  0.5082685  0.5174523  0.4820437    0.00000       Uiso       1.00
      H131          H  0.5302569  0.5081840  0.4738332    0.00000       Uiso       1.00
      H132          H  0.5265714  0.5316773  0.4962501    0.00000       Uiso       1.00
      C134          C  0.4466919  0.5124441  0.4750724    0.00000       Uiso       1.00
      H133          H  0.4563252  0.5179299  0.4917388    0.00000       Uiso       1.00
      H134          H  0.4380215  0.5037034  0.4734355    0.00000       Uiso       1.00
      H135          H  0.4353791  0.5261397  0.4697565    0.00000       Uiso       1.00
      C135          C  0.5320284  0.4656655  0.4670254    0.00000       Uiso       1.00
      H136          H  0.5366385  0.4737545  0.4842319    0.00000       Uiso       1.00
      H137          H  0.5383126  0.4697800  0.4601292    0.00000       Uiso       1.00
      H138          H  0.5384766  0.4484677  0.4636443    0.00000       Uiso       1.00
      C136          C  0.4656279  0.5320314  0.5306346    0.00000       Uiso       1.00
      H139          H  0.4737176  0.5366437  0.5261298    0.00000       Uiso       1.00
      H140          H  0.4697295  0.5383257  0.5479277    0.00000       Uiso       1.00
      H141          H  0.4484306  0.5384672  0.5232537    0.00000       Uiso       1.00
      C137          C  0.5124722  0.4466970  0.4840949    0.00000       Uiso       1.00
      H142          H  0.5179528  0.4563351  0.4825474    0.00000       Uiso       1.00
      H143          H  0.5037495  0.4380106  0.4683200    0.00000       Uiso       1.00
      H144          H  0.5261700  0.4353982  0.4918100    0.00000       Uiso       1.00
      C138          C  0.8146982  0.7374529  0.9550678    0.00000       Uiso       1.00
      C139          C  0.8021508  0.7247434  0.9532702    0.00000       Uiso       1.00
      C140          C  0.8129296  0.6992599  0.9493413    0.00000       Uiso       1.00
      C141          C  0.8381574  0.7247434  0.9532702    0.00000       Uiso       1.00
      C142          C  0.8490368  0.6993421  0.9494983    0.00000       Uiso       1.00
      C143          C  0.8366405  0.6859336  0.9473109    0.00000       Uiso       1.00
      C144          C  0.8685142  0.4028989  0.0088835    0.00000       Uiso       1.00
      C145          C  0.8703117  0.4263579  0.0214307    0.00000       Uiso       1.00
      C146          C  0.8740840  0.4372376  0.0106813    0.00000       Uiso       1.00
      C147          C  0.8703125  0.3903524  0.9854253    0.00000       Uiso       1.00
      C148          C  0.8742419  0.4011314  0.9746499    0.00000       Uiso       1.00
      C149          C  0.8762727  0.4248416  0.9870659    0.00000       Uiso       1.00
      C150          C  0.1492489  0.4028991  0.0088834    0.00000       Uiso       1.00
      C151          C  0.1365400  0.3903525  0.9854252    0.00000       Uiso       1.00
      C152          C  0.1111386  0.4011009  0.9745471    0.00000       Uiso       1.00
      C153          C  0.1365392  0.4263581  0.0214305    0.00000       Uiso       1.00
      C154          C  0.1110554  0.4371324  0.0106539    0.00000       Uiso       1.00
      C155          C  0.0977296  0.4247160  0.9869447    0.00000       Uiso       1.00
      C156          C  0.8147037  0.4567233  0.6743383    0.00000       Uiso       1.00
      C157          C  0.8381627  0.4585207  0.6870475    0.00000       Uiso       1.00
      C158          C  0.8489382  0.4624488  0.7125305    0.00000       Uiso       1.00
      C159          C  0.8021561  0.4585207  0.6870475    0.00000       Uiso       1.00
      C160          C  0.8129060  0.4622912  0.7124482    0.00000       Uiso       1.00
      C161          C  0.8365231  0.4644781  0.7258560    0.00000       Uiso       1.00
      C162          C  0.9117913  0.4999931  0.9117958    0.00000       Uiso       1.00
      C163          C  0.1501701  0.4405687  0.0472643    0.00000       Uiso       1.00
      H145          H  0.1389914  0.4560773  0.0531859    0.00000       Uiso       1.00
      H146          H  0.1627542  0.4428092  0.0466202    0.00000       Uiso       1.00
      H147          H  0.1571732  0.4315860  0.0579233    0.00000       Uiso       1.00
      C164          C  0.8683046  0.3645184  0.9712145    0.00000       Uiso       1.00
      H148          H  0.8698965  0.3585970  0.9557061    0.00000       Uiso       1.00
      H149          H  0.8528358  0.3651626  0.9689741    0.00000       Uiso       1.00
      H150          H  0.8809428  0.3538590  0.9801968    0.00000       Uiso       1.00
      C165          C  0.8523685  0.7383747  0.9552783    0.00000       Uiso       1.00
      H151          H  0.8678773  0.7271962  0.9536868    0.00000       Uiso       1.00
      H152          H  0.8546087  0.7509586  0.9707469    0.00000       Uiso       1.00
      H153          H  0.8433863  0.7453784  0.9426403    0.00000       Uiso       1.00
      C166          C  0.7763221  0.4565127  0.6734164    0.00000       Uiso       1.00
      H154          H  0.7704001  0.4581040  0.6845948    0.00000       Uiso       1.00
      H155          H  0.7769665  0.4410442  0.6608325    0.00000       Uiso       1.00
      H156          H  0.7656630  0.4691511  0.6664132    0.00000       Uiso       1.00
      C167          C  0.7763165  0.7383747  0.9552783    0.00000       Uiso       1.00
      H157          H  0.7703948  0.7271962  0.9536869    0.00000       Uiso       1.00
      H158          H  0.7656576  0.7453783  0.9426402    0.00000       Uiso       1.00
      H159          H  0.7769602  0.7509586  0.9707468    0.00000       Uiso       1.00
      C168          C  0.8523741  0.4565127  0.6734164    0.00000       Uiso       1.00
      H160          H  0.8678826  0.4581040  0.6845948    0.00000       Uiso       1.00
      H161          H  0.8433918  0.4691513  0.6664133    0.00000       Uiso       1.00
      H162          H  0.8546148  0.4410443  0.6608325    0.00000       Uiso       1.00
      C169          C  0.8683029  0.4405685  0.0472644    0.00000       Uiso       1.00
      H163          H  0.8698944  0.4560771  0.0531860    0.00000       Uiso       1.00
      H164          H  0.8809412  0.4315858  0.0579234    0.00000       Uiso       1.00
      H165          H  0.8528342  0.4428090  0.0466204    0.00000       Uiso       1.00
      C170          C  0.1501717  0.3645186  0.9712144    0.00000       Uiso       1.00
      H166          H  0.1389934  0.3585972  0.9557059    0.00000       Uiso       1.00
      H167          H  0.1571748  0.3538592  0.9801967    0.00000       Uiso       1.00
      H168          H  0.1627560  0.3651626  0.9689739    0.00000       Uiso       1.00
      C171          C  0.8744719  0.4651480  0.7258156    0.00000       Uiso       1.00
      H169          H  0.8794420  0.4676766  0.7426771    0.00000       Uiso       1.00
      H170          H  0.8738562  0.4787438  0.7241320    0.00000       Uiso       1.00
      H171          H  0.8858688  0.4506890  0.7188333    0.00000       Uiso       1.00
      C172          C  0.7984071  0.4635440  0.7253150    0.00000       Uiso       1.00
      H172          H  0.8076739  0.4661204  0.7422007    0.00000       Uiso       1.00
      H173          H  0.7952759  0.4486027  0.7181113    0.00000       Uiso       1.00
      H174          H  0.7833273  0.4766816  0.7235703    0.00000       Uiso       1.00
      C173          C  0.8753379  0.4633495  0.0251805    0.00000       Uiso       1.00
      H175          H  0.8779156  0.4683918  0.0159140    0.00000       Uiso       1.00
      H176          H  0.8884752  0.4635460  0.0402599    0.00000       Uiso       1.00
      H177          H  0.8603966  0.4742189  0.0283118    0.00000       Uiso       1.00
      C174          C  0.8769399  0.3861829  0.9491158    0.00000       Uiso       1.00
      H178          H  0.8794695  0.3955443  0.9441445    0.00000       Uiso       1.00
      H179          H  0.8624799  0.3822645  0.9377202    0.00000       Uiso       1.00
      H180          H  0.8905345  0.3715184  0.9497306    0.00000       Uiso       1.00
      C175          C  0.0977756  0.4626648  0.0256085    0.00000       Uiso       1.00
      H181          H  0.0809127  0.4676382  0.0162507    0.00000       Uiso       1.00
      H182          H  0.1047581  0.4740612  0.0295276    0.00000       Uiso       1.00
      H183          H  0.0994640  0.4620458  0.0402724    0.00000       Uiso       1.00
      C176          C  0.0982696  0.3866016  0.9484373    0.00000       Uiso       1.00
      H184          H  0.0813833  0.3958685  0.9433970    0.00000       Uiso       1.00
      H185          H  0.1000159  0.3715223  0.9482423    0.00000       Uiso       1.00
      H186          H  0.1054706  0.3834694  0.9375656    0.00000       Uiso       1.00
      C177          C  0.8751497  0.6864748  0.9482458    0.00000       Uiso       1.00
      H187          H  0.8801913  0.6695887  0.9456683    0.00000       Uiso       1.00
      H188          H  0.8860184  0.6936777  0.9631873    0.00000       Uiso       1.00
      H189          H  0.8753480  0.6882202  0.9351090    0.00000       Uiso       1.00
      C178          C  0.7979835  0.6859747  0.9466454    0.00000       Uiso       1.00
      H190          H  0.8073461  0.6691129  0.9441159    0.00000       Uiso       1.00
      H191          H  0.7833188  0.6876590  0.9330513    0.00000       Uiso       1.00
      H192          H  0.7940655  0.6929569  0.9611056    0.00000       Uiso       1.00
      C179          C  0.8482866  0.6584108  0.9428209    0.00000       Uiso       1.00
      C180          C  0.8433714  0.6470086  0.9521459    0.00000       Uiso       1.00
      C181          C  0.8540542  0.6214299  0.9478583    0.00000       Uiso       1.00
      C182          C  0.8644772  0.6432050  0.9290934    0.00000       Uiso       1.00
      C183          C  0.8754408  0.6176628  0.9248767    0.00000       Uiso       1.00
      C184          C  0.8701921  0.6067055  0.9342363    0.00000       Uiso       1.00
      C185          C  0.8807638  0.4364882  0.9756821    0.00000       Uiso       1.00
      C186          C  0.8945004  0.4526697  0.9903945    0.00000       Uiso       1.00
      C187          C  0.8987170  0.4636347  0.9800340    0.00000       Uiso       1.00
      C188          C  0.8714291  0.4315846  0.9500425    0.00000       Uiso       1.00
      C189          C  0.8757167  0.4422686  0.9394366    0.00000       Uiso       1.00
      C190          C  0.8893478  0.4583962  0.9544705    0.00000       Uiso       1.00
      C191          C  0.0702072  0.4360982  0.9752984    0.00000       Uiso       1.00
      C192          C  0.0550038  0.4213829  0.9591078    0.00000       Uiso       1.00
      C193          C  0.0294593  0.4317438  0.9481411    0.00000       Uiso       1.00
      C194          C  0.0588045  0.4617391  0.9802111    0.00000       Uiso       1.00
      C195          C  0.0332277  0.4723449  0.9695286    0.00000       Uiso       1.00
      C196          C  0.0185020  0.4573117  0.9533907    0.00000       Uiso       1.00
      C197          C  0.8479087  0.4689678  0.7533779    0.00000       Uiso       1.00
      C198          C  0.8735496  0.4596346  0.7647788    0.00000       Uiso       1.00
      C199          C  0.8841574  0.4639240  0.7903571    0.00000       Uiso       1.00
      C200          C  0.8331969  0.4827022  0.7685841    0.00000       Uiso       1.00
      C201          C  0.8435583  0.4869178  0.7941257    0.00000       Uiso       1.00
      C202          C  0.8691223  0.4775529  0.8050818    0.00000       Uiso       1.00
      C203          C  0.9096311  0.4548641  0.8015687    0.00000       Uiso       1.00
      C204          C  0.9200503  0.4594730  0.8269967    0.00000       Uiso       1.00
      C205          C  0.8666501  0.4370725  0.9139626    0.00000       Uiso       1.00
      C206          C  0.8712562  0.4474747  0.9035432    0.00000       Uiso       1.00
      C207          C  0.8516482  0.4195930  0.8969948    0.00000       Uiso       1.00
      H193          H  0.8469484  0.4180671  0.8804791    0.00000       Uiso       1.00
      H194          H  0.8374343  0.4259561  0.9011235    0.00000       Uiso       1.00
      H195          H  0.8613076  0.4039729  0.8989147    0.00000       Uiso       1.00
      C208          C  0.8611888  0.4409684  0.8755315    0.00000       Uiso       1.00
      H196          H  0.8657091  0.4492909  0.8712077    0.00000       Uiso       1.00
      H197          H  0.8438547  0.4457916  0.8700116    0.00000       Uiso       1.00
      H198          H  0.8677920  0.4238092  0.8680950    0.00000       Uiso       1.00
      C209          C  0.9480624  0.4494126  0.8384404    0.00000       Uiso       1.00
      H199          H  0.9523825  0.4539360  0.8556065    0.00000       Uiso       1.00
      H200          H  0.9554974  0.4560176  0.8353208    0.00000       Uiso       1.00
      H201          H  0.9535874  0.4320785  0.8314533    0.00000       Uiso       1.00
      C210          C  0.9265942  0.4398639  0.7860496    0.00000       Uiso       1.00
      H202          H  0.9431118  0.4351663  0.7963365    0.00000       Uiso       1.00
      H203          H  0.9246678  0.4495234  0.7781653    0.00000       Uiso       1.00
      H204          H  0.9224672  0.4256485  0.7740735    0.00000       Uiso       1.00
      C211          C  0.8263956  0.6627380  0.9676914    0.00000       Uiso       1.00
      H205          H  0.8249146  0.6525403  0.9725454    0.00000       Uiso       1.00
      H206          H  0.8107020  0.6708305  0.9583049    0.00000       Uiso       1.00
      H207          H  0.8330982  0.6745464  0.9818134    0.00000       Uiso       1.00
      C212          C  0.8699358  0.6544640  0.9179210    0.00000       Uiso       1.00
      H208          H  0.8810121  0.6420307  0.9093406    0.00000       Uiso       1.00
      H209          H  0.8770204  0.6666516  0.9306082    0.00000       Uiso       1.00
      H210          H  0.8551420  0.6616550  0.9069223    0.00000       Uiso       1.00
      C213          C  0.8053086  0.4938808  0.7573245    0.00000       Uiso       1.00
      H211          H  0.7980839  0.5024659  0.7697574    0.00000       Uiso       1.00
      H212          H  0.7987200  0.4811958  0.7451377    0.00000       Uiso       1.00
      H213          H  0.8019181  0.5048766  0.7501326    0.00000       Uiso       1.00
      C214          C  0.8903359  0.4440767  0.7490433    0.00000       Uiso       1.00
      H214          H  0.9068689  0.4392166  0.7592375    0.00000       Uiso       1.00
      H215          H  0.8885550  0.4534581  0.7409477    0.00000       Uiso       1.00
      H216          H  0.8859391  0.4299582  0.7372376    0.00000       Uiso       1.00
      C215          C  0.9056826  0.4581161  0.0182814    0.00000       Uiso       1.00
      H217          H  0.9142684  0.4691876  0.0255050    0.00000       Uiso       1.00
      H218          H  0.9166782  0.4433180  0.0216698    0.00000       Uiso       1.00
      H219          H  0.8929993  0.4652028  0.0248728    0.00000       Uiso       1.00
      C216          C  0.8558704  0.4146223  0.9332453    0.00000       Uiso       1.00
      H220          H  0.8510132  0.4131511  0.9167153    0.00000       Uiso       1.00
      H221          H  0.8417501  0.4213285  0.9376389    0.00000       Uiso       1.00
      H222          H  0.8652501  0.3989237  0.9350198    0.00000       Uiso       1.00
      C217          C  0.0745253  0.4785388  0.9971824    0.00000       Uiso       1.00
      H223          H  0.0643223  0.4950694  0.9986586    0.00000       Uiso       1.00
      H224          H  0.0863332  0.4741524  0.9904798    0.00000       Uiso       1.00
      H225          H  0.0826181  0.4767575  0.0128774    0.00000       Uiso       1.00
      C218          C  0.0662726  0.3934944  0.9536568    0.00000       Uiso       1.00
      H226          H  0.0538442  0.3862648  0.9425805    0.00000       Uiso       1.00
      H227          H  0.0734631  0.3901021  0.9684526    0.00000       Uiso       1.00
      H228          H  0.0784620  0.3869124  0.9465749    0.00000       Uiso       1.00
      C219          C  0.8809562  0.5809500  0.9298021    0.00000       Uiso       1.00
      C220          C  0.8753548  0.5698958  0.9387321    0.00000       Uiso       1.00
      C221          C  0.8855390  0.5441986  0.9336668    0.00000       Uiso       1.00
      C222          C  0.8969993  0.5662473  0.9161162    0.00000       Uiso       1.00
      C223          C  0.9073107  0.5406684  0.9114619    0.00000       Uiso       1.00
      C224          C  0.9020045  0.5289147  0.9201286    0.00000       Uiso       1.00
      C225          C  0.8937805  0.4691607  0.9439129    0.00000       Uiso       1.00
      C226          C  0.9074749  0.4851961  0.9589382    0.00000       Uiso       1.00
      C227          C  0.9121288  0.4955095  0.9483254    0.00000       Uiso       1.00
      C228          C  0.8848398  0.4635697  0.9183273    0.00000       Uiso       1.00
      C229          C  0.8899074  0.4737532  0.9078799    0.00000       Uiso       1.00
      C230          C  0.9034572  0.4902079  0.9225990    0.00000       Uiso       1.00
      C231          C  0.9927490  0.4678729  0.9426287    0.00000       Uiso       1.00
      C232          C  0.9780456  0.4528470  0.9265830    0.00000       Uiso       1.00
      C233          C  0.9524664  0.4634623  0.9162718    0.00000       Uiso       1.00
      C234          C  0.9816958  0.4934606  0.9482324    0.00000       Uiso       1.00
      C235          C  0.9559978  0.5039102  0.9380509    0.00000       Uiso       1.00
      C236          C  0.9407135  0.4891904  0.9215832    0.00000       Uiso       1.00
      C237          C  0.8796788  0.4819868  0.8308367    0.00000       Uiso       1.00
      C238          C  0.9052657  0.4730521  0.8418912    0.00000       Uiso       1.00
      C239          C  0.9157125  0.4781198  0.8675903    0.00000       Uiso       1.00
      C240          C  0.8646514  0.4956736  0.8455397    0.00000       Uiso       1.00
      C241          C  0.8752632  0.5003252  0.8711189    0.00000       Uiso       1.00
      C242          C  0.9009904  0.4916604  0.8828735    0.00000       Uiso       1.00
      C243          C  0.9965901  0.5082446  0.9643378    0.00000       Uiso       1.00
      C244          C  0.0220176  0.4978222  0.9747373    0.00000       Uiso       1.00
      C245          C  0.9891963  0.4273798  0.9214161    0.00000       Uiso       1.00
      C246          C  0.0145599  0.4169708  0.9320798    0.00000       Uiso       1.00
      C247          C  0.8592480  0.5847889  0.9523048    0.00000       Uiso       1.00
      C248          C  0.8488452  0.6102176  0.9569123    0.00000       Uiso       1.00
      C249          C  0.9021681  0.5773993  0.9069687    0.00000       Uiso       1.00
      C250          C  0.8915042  0.6027665  0.9112657    0.00000       Uiso       1.00
      C251          C  0.8391842  0.5048245  0.8343878    0.00000       Uiso       1.00
      C252          C  0.8287807  0.5005314  0.8090229    0.00000       Uiso       1.00
      C253          C  0.9166326  0.4903541  0.9844051    0.00000       Uiso       1.00
      C254          C  0.9123369  0.4796891  0.9948106    0.00000       Uiso       1.00
      C255          C  0.8313527  0.6257380  0.9719011    0.00000       Uiso       1.00
      H229          H  0.8298149  0.6154522  0.9765964    0.00000       Uiso       1.00
      H230          H  0.8157384  0.6336195  0.9622358    0.00000       Uiso       1.00
      H231          H  0.8377136  0.6377168  0.9861175    0.00000       Uiso       1.00
      C256          C  0.8527284  0.5733493  0.9623591    0.00000       Uiso       1.00
      H232          H  0.8417339  0.5858127  0.9710241    0.00000       Uiso       1.00
      H233          H  0.8672081  0.5655146  0.9730963    0.00000       Uiso       1.00
      H234          H  0.8452212  0.5616637  0.9491596    0.00000       Uiso       1.00
      C257          C  0.9195186  0.5618626  0.8918266    0.00000       Uiso       1.00
      H235          H  0.9210196  0.5721482  0.8870997    0.00000       Uiso       1.00
      H236          H  0.9130763  0.5499261  0.8776280    0.00000       Uiso       1.00
      H237          H  0.9351634  0.5539292  0.9014113    0.00000       Uiso       1.00
      C258          C  0.8975939  0.6141195  0.9007370    0.00000       Uiso       1.00
      H238          H  0.9086168  0.6016586  0.8921040    0.00000       Uiso       1.00
      H239          H  0.9049394  0.6260104  0.9137238    0.00000       Uiso       1.00
      H240          H  0.8829823  0.6216931  0.8898884    0.00000       Uiso       1.00
      C259          C  0.9228799  0.4857691  0.0227798    0.00000       Uiso       1.00
      H241          H  0.9315172  0.4967872  0.0299711    0.00000       Uiso       1.00
      H242          H  0.9337275  0.4711538  0.0265837    0.00000       Uiso       1.00
      H243          H  0.9098992  0.4931174  0.0290388    0.00000       Uiso       1.00
      C260          C  0.9317860  0.5076931  0.0013550    0.00000       Uiso       1.00
      H244          H  0.9365202  0.5091896  0.0178682    0.00000       Uiso       1.00
      H245          H  0.9222052  0.5233412  0.9994882    0.00000       Uiso       1.00
      H246          H  0.9459805  0.5012460  0.9971662    0.00000       Uiso       1.00
      C261          C  0.8222321  0.5199636  0.8499283    0.00000       Uiso       1.00
      H247          H  0.8057182  0.5246952  0.8396459    0.00000       Uiso       1.00
      H248          H  0.8264157  0.5341596  0.8618682    0.00000       Uiso       1.00
      H249          H  0.8241047  0.5103750  0.8578574    0.00000       Uiso       1.00
      C262          C  0.8008099  0.5110668  0.7976752    0.00000       Uiso       1.00
      H250          H  0.7936174  0.5197005  0.8101382    0.00000       Uiso       1.00
      H251          H  0.7945563  0.4980828  0.7857841    0.00000       Uiso       1.00
      H252          H  0.7970011  0.5219162  0.7901031    0.00000       Uiso       1.00
      C263          C  0.9736557  0.4104284  0.9040659    0.00000       Uiso       1.00
      H253          H  0.9839386  0.3939143  0.9025646    0.00000       Uiso       1.00
      H254          H  0.9657238  0.4123023  0.8884215    0.00000       Uiso       1.00
      H255          H  0.9617178  0.4146115  0.9105084    0.00000       Uiso       1.00
      C264          C  0.0259043  0.3889994  0.9259887    0.00000       Uiso       1.00
      H256          H  0.0134397  0.3818096  0.9149666    0.00000       Uiso       1.00
      H257          H  0.0334754  0.3851884  0.9405997    0.00000       Uiso       1.00
      H258          H  0.0377959  0.3827450  0.9186420    0.00000       Uiso       1.00
      C265          C  0.9851505  0.5362579  0.9708573    0.00000       Uiso       1.00
      H259          H  0.9976139  0.5434535  0.9818510    0.00000       Uiso       1.00
      H260          H  0.9734650  0.5422512  0.9783651    0.00000       Uiso       1.00
      H261          H  0.9773158  0.5403501  0.9563777    0.00000       Uiso       1.00
      C266          C  0.0375320  0.5147883  0.9922285    0.00000       Uiso       1.00
      H262          H  0.0272429  0.5313056  0.9937617    0.00000       Uiso       1.00
      H263          H  0.0495125  0.5106659  0.9858696    0.00000       Uiso       1.00
      H264          H  0.0454110  0.5128592  0.0078437    0.00000       Uiso       1.00
      C267          C  0.9242471  0.5249245  0.8958750    0.00000       Uiso       1.00
      H265          H  0.9297314  0.5082573  0.8943256    0.00000       Uiso       1.00
      H266          H  0.9379433  0.5302412  0.9035826    0.00000       Uiso       1.00
      H267          H  0.9155147  0.5265627  0.8801016    0.00000       Uiso       1.00
      C268          C  0.8774312  0.5329643  0.9424378    0.00000       Uiso       1.00
      H268          H  0.8855227  0.5157580  0.9379335    0.00000       Uiso       1.00
      H269          H  0.8602340  0.5363433  0.9350596    0.00000       Uiso       1.00
      H270          H  0.8815352  0.5398614  0.9597311    0.00000       Uiso       1.00
      C269          C  0.9438247  0.4693381  0.8788283    0.00000       Uiso       1.00
      H271          H  0.9484311  0.4738466  0.8960345    0.00000       Uiso       1.00
      H272          H  0.9502744  0.4767069  0.8754490    0.00000       Uiso       1.00
      H273          H  0.9501106  0.4520436  0.8719341    0.00000       Uiso       1.00
      C270          C  0.8584815  0.5158950  0.8868598    0.00000       Uiso       1.00
      H274          H  0.8681145  0.5174441  0.9035268    0.00000       Uiso       1.00
      H275          H  0.8471845  0.5081760  0.8815390    0.00000       Uiso       1.00
      H276          H  0.8497931  0.5316697  0.8852240    0.00000       Uiso       1.00
      C271          C  0.9277270  0.5124345  0.9651024    0.00000       Uiso       1.00
      H277          H  0.9292743  0.5179209  0.9554690    0.00000       Uiso       1.00
      H278          H  0.9435010  0.5036936  0.9737726    0.00000       Uiso       1.00
      H279          H  0.9200282  0.5261298  0.9764150    0.00000       Uiso       1.00
      C272          C  0.8811238  0.4656575  0.8797676    0.00000       Uiso       1.00
      H280          H  0.8856310  0.4737469  0.8751573    0.00000       Uiso       1.00
      H281          H  0.8638293  0.4697719  0.8734838    0.00000       Uiso       1.00
      H282          H  0.8884926  0.4484597  0.8733196    0.00000       Uiso       1.00
      C273          C  0.9447652  0.5320233  0.9461657    0.00000       Uiso       1.00
      H283          H  0.9275587  0.5366357  0.9380762    0.00000       Uiso       1.00
      H284          H  0.9516621  0.5383180  0.9420638    0.00000       Uiso       1.00
      H285          H  0.9481456  0.5384585  0.9633628    0.00000       Uiso       1.00
      C274          C  0.9367175  0.4466889  0.8993232    0.00000       Uiso       1.00
      H286          H  0.9200514  0.4563271  0.8938427    0.00000       Uiso       1.00
      H287          H  0.9383518  0.4380020  0.9080460    0.00000       Uiso       1.00
      H288          H  0.9420336  0.4353905  0.8856255    0.00000       Uiso       1.00
      C275          C  0.8147052  0.7374599  0.5970939    0.00000       Uiso       1.00
      C276          C  0.8381642  0.7247502  0.6096410    0.00000       Uiso       1.00
      C277          C  0.8489403  0.6992668  0.5988625    0.00000       Uiso       1.00
      C278          C  0.8021582  0.7247509  0.5736350    0.00000       Uiso       1.00
      C279          C  0.8129085  0.6993497  0.5627560    0.00000       Uiso       1.00
      C280          C  0.8365257  0.6859409  0.5751522    0.00000       Uiso       1.00
      C281          C  0.1492584  0.4029085  0.5432776    0.00000       Uiso       1.00
      C282          C  0.1365490  0.4263678  0.5414801    0.00000       Uiso       1.00
      C283          C  0.1111479  0.4372474  0.5377080    0.00000       Uiso       1.00
      C284          C  0.1365490  0.3903611  0.5414801    0.00000       Uiso       1.00
      C285          C  0.1110655  0.4011400  0.5375509    0.00000       Uiso       1.00
      C286          C  0.0977402  0.4248506  0.5355200    0.00000       Uiso       1.00
      C287          C  0.8685291  0.4029141  0.2625482    0.00000       Uiso       1.00
      C288          C  0.8703264  0.3903665  0.2752575    0.00000       Uiso       1.00
      C289          C  0.8741011  0.4011142  0.3006586    0.00000       Uiso       1.00
      C290          C  0.8703264  0.4263732  0.2752575    0.00000       Uiso       1.00
      C291          C  0.8742591  0.4371468  0.3007410    0.00000       Uiso       1.00
      C292          C  0.8762921  0.4247292  0.3140671    0.00000       Uiso       1.00
      C293          C  0.8147052  0.4567248  0.5970938    0.00000       Uiso       1.00
      C294          C  0.8021583  0.4585229  0.5736350    0.00000       Uiso       1.00
      C295          C  0.8129373  0.4624518  0.5628592    0.00000       Uiso       1.00
      C296          C  0.8381642  0.4585222  0.6096410    0.00000       Uiso       1.00
      C297          C  0.8490441  0.4622934  0.5988908    0.00000       Uiso       1.00
      C298          C  0.8366482  0.4644811  0.5752739    0.00000       Uiso       1.00
      C299          C  0.9118026  0.5000011  0.5000035    0.00000       Uiso       1.00
      C300          C  0.8683184  0.4405845  0.2616263    0.00000       Uiso       1.00
      H289          H  0.8699098  0.4560930  0.2728046    0.00000       Uiso       1.00
      H290          H  0.8528499  0.4428253  0.2490424    0.00000       Uiso       1.00
      H291          H  0.8809569  0.4316022  0.2546231    0.00000       Uiso       1.00
      C301          C  0.1501804  0.3645268  0.5434883    0.00000       Uiso       1.00
      H292          H  0.1390018  0.3586051  0.5418967    0.00000       Uiso       1.00
      H293          H  0.1627642  0.3651707  0.5589567    0.00000       Uiso       1.00
      H294          H  0.1571839  0.3538679  0.5308502    0.00000       Uiso       1.00
      C302          C  0.7763242  0.7383825  0.5594243    0.00000       Uiso       1.00
      H295          H  0.7704028  0.7272043  0.5439158    0.00000       Uiso       1.00
      H296          H  0.7769684  0.7509667  0.5571838    0.00000       Uiso       1.00
      H297          H  0.7656648  0.7453857  0.5684066    0.00000       Uiso       1.00
      C303          C  0.8523749  0.4565135  0.6354748    0.00000       Uiso       1.00
      H298          H  0.8678834  0.4581049  0.6413963    0.00000       Uiso       1.00
      H299          H  0.8546154  0.4410447  0.6348307    0.00000       Uiso       1.00
      H300          H  0.8433922  0.4691516  0.6461338    0.00000       Uiso       1.00
      C304          C  0.8523747  0.7383810  0.6354748    0.00000       Uiso       1.00
      H301          H  0.8678834  0.7272024  0.6413964    0.00000       Uiso       1.00
      H302          H  0.8433921  0.7453840  0.6461338    0.00000       Uiso       1.00
      H303          H  0.8546152  0.7509652  0.6348308    0.00000       Uiso       1.00
      C305          C  0.7763243  0.4565150  0.5594242    0.00000       Uiso       1.00
      H304          H  0.7704029  0.4581068  0.5439158    0.00000       Uiso       1.00
      H305          H  0.7656649  0.4691532  0.5684066    0.00000       Uiso       1.00
      H306          H  0.7769684  0.4410463  0.5571838    0.00000       Uiso       1.00
      C306          C  0.1501803  0.4405789  0.5434883    0.00000       Uiso       1.00
      H307          H  0.1390018  0.4560876  0.5418967    0.00000       Uiso       1.00
      H308          H  0.1571839  0.4315966  0.5308501    0.00000       Uiso       1.00
      H309          H  0.1627643  0.4428190  0.5589566    0.00000       Uiso       1.00
      C307          C  0.8683185  0.3645325  0.2616263    0.00000       Uiso       1.00
      H310          H  0.8699098  0.3586105  0.2728047    0.00000       Uiso       1.00
      H311          H  0.8809571  0.3538734  0.2546232    0.00000       Uiso       1.00
      H312          H  0.8528500  0.3651768  0.2490424    0.00000       Uiso       1.00
      C308          C  0.7979898  0.4651518  0.5373259    0.00000       Uiso       1.00
      H313          H  0.8073524  0.4676807  0.5323555    0.00000       Uiso       1.00
      H314          H  0.7833261  0.4787474  0.5379416    0.00000       Uiso       1.00
      H315          H  0.7940698  0.4506928  0.5259293    0.00000       Uiso       1.00
      C309          C  0.8751565  0.4635462  0.6133892    0.00000       Uiso       1.00
      H316          H  0.8801988  0.4661231  0.6041222    0.00000       Uiso       1.00
      H317          H  0.8860254  0.4486047  0.6165204    0.00000       Uiso       1.00
      H318          H  0.8753537  0.4766835  0.6284686    0.00000       Uiso       1.00
      C310          C  0.0982809  0.4633596  0.5364538    0.00000       Uiso       1.00
      H319          H  0.0813948  0.4684017  0.5338764    0.00000       Uiso       1.00
      H320          H  0.1000266  0.4635566  0.5233166    0.00000       Uiso       1.00
      H321          H  0.1054839  0.4742287  0.5513948    0.00000       Uiso       1.00
      C311          C  0.0977824  0.3861910  0.5348535    0.00000       Uiso       1.00
      H322          H  0.0809203  0.3955525  0.5323241    0.00000       Uiso       1.00
      H323          H  0.1047652  0.3822722  0.5493135    0.00000       Uiso       1.00
      H324          H  0.0994675  0.3715268  0.5212592    0.00000       Uiso       1.00
      C312          C  0.8769603  0.4626792  0.3140201    0.00000       Uiso       1.00
      H325          H  0.8794920  0.4676520  0.3308830    0.00000       Uiso       1.00
      H326          H  0.8625007  0.4740758  0.3070378    0.00000       Uiso       1.00
      H327          H  0.8905547  0.4620606  0.3123315    0.00000       Uiso       1.00
      C313          C  0.8753600  0.3866140  0.3135279    0.00000       Uiso       1.00
      H328          H  0.8779387  0.3958806  0.3304139    0.00000       Uiso       1.00
      H329          H  0.8884979  0.3715348  0.3117816    0.00000       Uiso       1.00
      H330          H  0.8604197  0.3834818  0.3063272    0.00000       Uiso       1.00
      C314          C  0.7984110  0.6864829  0.5366437    0.00000       Uiso       1.00
      H331          H  0.8076782  0.6695969  0.5316022    0.00000       Uiso       1.00
      H332          H  0.7952808  0.6936863  0.5257749    0.00000       Uiso       1.00
      H333          H  0.7833308  0.6882281  0.5364456    0.00000       Uiso       1.00
      C315          C  0.8744754  0.6859813  0.6138084    0.00000       Uiso       1.00
      H334          H  0.8794454  0.6691196  0.6044460    0.00000       Uiso       1.00
      H335          H  0.8738618  0.6876649  0.6284731    0.00000       Uiso       1.00
      H336          H  0.8858712  0.6929637  0.6177260    0.00000       Uiso       1.00
      C316          C  0.8479128  0.6584183  0.5635064    0.00000       Uiso       1.00
      C317          C  0.8735549  0.6470161  0.5684212    0.00000       Uiso       1.00
      C318          C  0.8841637  0.6214375  0.5577388    0.00000       Uiso       1.00
      C319          C  0.8332011  0.6432126  0.5473164    0.00000       Uiso       1.00
      C320          C  0.8435633  0.6176705  0.5363531    0.00000       Uiso       1.00
      C321          C  0.8691286  0.6067132  0.5416014    0.00000       Uiso       1.00
      C322          C  0.0702191  0.4364970  0.5310292    0.00000       Uiso       1.00
      C323          C  0.0550133  0.4526791  0.5172925    0.00000       Uiso       1.00
      C324          C  0.0294715  0.4636439  0.5130761    0.00000       Uiso       1.00
      C325          C  0.0588180  0.4315927  0.5403642    0.00000       Uiso       1.00
      C326          C  0.0332410  0.4422765  0.5360769    0.00000       Uiso       1.00
      C327          C  0.0185160  0.4584047  0.5224457    0.00000       Uiso       1.00
      C328          C  0.8807856  0.4361107  0.3415892    0.00000       Uiso       1.00
      C329          C  0.8945138  0.4213947  0.3567926    0.00000       Uiso       1.00
      C330          C  0.8987305  0.4317549  0.3823368    0.00000       Uiso       1.00
      C331          C  0.8714599  0.4617515  0.3529916    0.00000       Uiso       1.00
      C332          C  0.8757482  0.4723565  0.3785681    0.00000       Uiso       1.00
      C333          C  0.8893692  0.4573227  0.3932938    0.00000       Uiso       1.00
      C334          C  0.8482944  0.4689715  0.5638880    0.00000       Uiso       1.00
      C335          C  0.8433880  0.4596390  0.5382474    0.00000       Uiso       1.00
      C336          C  0.8540686  0.4639292  0.5276392    0.00000       Uiso       1.00
      C337          C  0.8644773  0.4827060  0.5785992    0.00000       Uiso       1.00
      C338          C  0.8754417  0.4869223  0.5682375    0.00000       Uiso       1.00
      C339          C  0.8701990  0.4775580  0.5426738    0.00000       Uiso       1.00
      C340          C  0.8488668  0.4548700  0.5021658    0.00000       Uiso       1.00
      C341          C  0.8592665  0.4594796  0.4917463    0.00000       Uiso       1.00
      C342          C  0.0220299  0.4370798  0.5451438    0.00000       Uiso       1.00
      C343          C  0.9966029  0.4474818  0.5405380    0.00000       Uiso       1.00
      C344          C  0.0375436  0.4195996  0.5601457    0.00000       Uiso       1.00
      H337          H  0.0272538  0.4180734  0.5648459    0.00000       Uiso       1.00
      H338          H  0.0495228  0.4259625  0.5743593    0.00000       Uiso       1.00
      H339          H  0.0454243  0.4039798  0.5504865    0.00000       Uiso       1.00
      C345          C  0.9851652  0.4409748  0.5506058    0.00000       Uiso       1.00
      H340          H  0.9679987  0.4492973  0.5460857    0.00000       Uiso       1.00
      H341          H  0.9921559  0.4457975  0.5679396    0.00000       Uiso       1.00
      H342          H  0.9882850  0.4238156  0.5440028    0.00000       Uiso       1.00
      C346          C  0.8527586  0.4494200  0.4637346    0.00000       Uiso       1.00
      H343          H  0.8610812  0.4539437  0.4594142    0.00000       Uiso       1.00
      H344          H  0.8355994  0.4560250  0.4562998    0.00000       Uiso       1.00
      H345          H  0.8575809  0.4320858  0.4582098    0.00000       Uiso       1.00
      C347          C  0.8313855  0.4398698  0.4852034    0.00000       Uiso       1.00
      H346          H  0.8298525  0.4351727  0.4686859    0.00000       Uiso       1.00
      H347          H  0.8157682  0.4495291  0.4871299    0.00000       Uiso       1.00
      H348          H  0.8377518  0.4256541  0.4893304    0.00000       Uiso       1.00
      C348          C  0.8903460  0.6627455  0.5853963    0.00000       Uiso       1.00
      H349          H  0.9068788  0.6525478  0.5868773    0.00000       Uiso       1.00
      H350          H  0.8885606  0.6708376  0.6010900    0.00000       Uiso       1.00
      H351          H  0.8859571  0.6745543  0.5786937    0.00000       Uiso       1.00
      C349          C  0.8053115  0.6544713  0.5418581    0.00000       Uiso       1.00
      H352          H  0.7980882  0.6420382  0.5307820    0.00000       Uiso       1.00
      H353          H  0.7987263  0.6666594  0.5347733    0.00000       Uiso       1.00
      H354          H  0.8019153  0.6616619  0.5566518    0.00000       Uiso       1.00
      C350          C  0.8699271  0.4938838  0.6064871    0.00000       Uiso       1.00
      H355          H  0.8809993  0.5024690  0.6137115    0.00000       Uiso       1.00
      H356          H  0.8770141  0.4811984  0.6130759    0.00000       Uiso       1.00
      H357          H  0.8551301  0.5048793  0.6098777    0.00000       Uiso       1.00
      C351          C  0.8264245  0.4440812  0.5214617    0.00000       Uiso       1.00
      H358          H  0.8249461  0.4392216  0.5049288    0.00000       Uiso       1.00
      H359          H  0.8107287  0.4534623  0.5232427    0.00000       Uiso       1.00
      H360          H  0.8331344  0.4299623  0.5258586    0.00000       Uiso       1.00
      C352          C  0.0662714  0.4581266  0.5061100    0.00000       Uiso       1.00
      H361          H  0.0538378  0.4691984  0.4975242    0.00000       Uiso       1.00
      H362          H  0.0734623  0.4433288  0.4951143    0.00000       Uiso       1.00
      H363          H  0.0784590  0.4652133  0.5187929    0.00000       Uiso       1.00
      C353          C  0.0745418  0.4146298  0.5559229    0.00000       Uiso       1.00
      H364          H  0.0643405  0.4131582  0.5607804    0.00000       Uiso       1.00
      H365          H  0.0863492  0.4213358  0.5700428    0.00000       Uiso       1.00
      H366          H  0.0826355  0.3989314  0.5465434    0.00000       Uiso       1.00
      C354          C  0.8559107  0.4785517  0.3372707    0.00000       Uiso       1.00
      H367          H  0.8510590  0.4950822  0.3474735    0.00000       Uiso       1.00
      H368          H  0.8417869  0.4741654  0.3254632    0.00000       Uiso       1.00
      H369          H  0.8652941  0.4767714  0.3291777    0.00000       Uiso       1.00
      C355          C  0.9056829  0.3935063  0.3455241    0.00000       Uiso       1.00
      H370          H  0.9142646  0.3862763  0.3579525    0.00000       Uiso       1.00
      H371          H  0.9166804  0.3901145  0.3383335    0.00000       Uiso       1.00
      H372          H  0.8929939  0.3869244  0.3333351    0.00000       Uiso       1.00
      C356          C  0.8796860  0.5809578  0.5308377    0.00000       Uiso       1.00
      C357          C  0.9052714  0.5699037  0.5364388    0.00000       Uiso       1.00
      C358          C  0.9157194  0.5442066  0.5262548    0.00000       Uiso       1.00
      C359          C  0.8646604  0.5662552  0.5147951    0.00000       Uiso       1.00
      C360          C  0.8752738  0.5406765  0.5044840    0.00000       Uiso       1.00
      C361          C  0.9010001  0.5289229  0.5097899    0.00000       Uiso       1.00
      C362          C  0.9927619  0.4691691  0.5180133    0.00000       Uiso       1.00
      C363          C  0.9780572  0.4852051  0.5043189    0.00000       Uiso       1.00
      C364          C  0.9524775  0.4955184  0.4996653    0.00000       Uiso       1.00
      C365          C  0.9817083  0.4635774  0.5269544    0.00000       Uiso       1.00
      C366          C  0.9560102  0.4737608  0.5218871    0.00000       Uiso       1.00
      C367          C  0.9407247  0.4902161  0.5083373    0.00000       Uiso       1.00
      C368          C  0.8937989  0.4678832  0.4190468    0.00000       Uiso       1.00
      C369          C  0.9074826  0.4528567  0.4337502    0.00000       Uiso       1.00
      C370          C  0.9121351  0.4634712  0.4593292    0.00000       Uiso       1.00
      C371          C  0.8848677  0.4934708  0.4300997    0.00000       Uiso       1.00
      C372          C  0.8899345  0.5039197  0.4557974    0.00000       Uiso       1.00
      C373          C  0.9034709  0.4891993  0.4710817    0.00000       Uiso       1.00
      C374          C  0.8809631  0.4819927  0.5321169    0.00000       Uiso       1.00
      C375          C  0.8753659  0.4730587  0.5065303    0.00000       Uiso       1.00
      C376          C  0.8855500  0.4781271  0.4960833    0.00000       Uiso       1.00
      C377          C  0.8970062  0.4956795  0.5471438    0.00000       Uiso       1.00
      C378          C  0.9073218  0.5003318  0.5365317    0.00000       Uiso       1.00
      C379          C  0.9020143  0.4916677  0.5108047    0.00000       Uiso       1.00
      C380          C  0.8712950  0.5082553  0.4152053    0.00000       Uiso       1.00
      C381          C  0.8666893  0.4978337  0.3897779    0.00000       Uiso       1.00
      C382          C  0.9166324  0.4273896  0.4225999    0.00000       Uiso       1.00
      C383          C  0.9123415  0.4169813  0.3972362    0.00000       Uiso       1.00
      C384          C  0.9200571  0.5847968  0.5525450    0.00000       Uiso       1.00
      C385          C  0.9096385  0.6102253  0.5629475    0.00000       Uiso       1.00
      C386          C  0.8391923  0.5774071  0.5096267    0.00000       Uiso       1.00
      C387          C  0.8287858  0.6027742  0.5202903    0.00000       Uiso       1.00
      C388          C  0.9021704  0.5048296  0.5726107    0.00000       Uiso       1.00
      C389          C  0.8915023  0.5005358  0.5830145    0.00000       Uiso       1.00
      C390          C  0.9892082  0.4903637  0.4951609    0.00000       Uiso       1.00
      C391          C  0.0145738  0.4796989  0.4994563    0.00000       Uiso       1.00
      C392          C  0.9265988  0.6257458  0.5804394    0.00000       Uiso       1.00
      H373          H  0.9431176  0.6154600  0.5819771    0.00000       Uiso       1.00
      H374          H  0.9246662  0.6336268  0.5960535    0.00000       Uiso       1.00
      H375          H  0.9224753  0.6377249  0.5740783    0.00000       Uiso       1.00
      C393          C  0.9480705  0.5733573  0.5590643    0.00000       Uiso       1.00
      H376          H  0.9552660  0.5858207  0.5700584    0.00000       Uiso       1.00
      H377          H  0.9521626  0.5655231  0.5445847    0.00000       Uiso       1.00
      H378          H  0.9540638  0.5616713  0.5665716    0.00000       Uiso       1.00
      C394          C  0.8222371  0.5618705  0.4922767    0.00000       Uiso       1.00
      H379          H  0.8057238  0.5721560  0.4907759    0.00000       Uiso       1.00
      H380          H  0.8264174  0.5499335  0.4987191    0.00000       Uiso       1.00
      H381          H  0.8241106  0.5539375  0.4766321    0.00000       Uiso       1.00
      C395          C  0.8008147  0.6141271  0.5142009    0.00000       Uiso       1.00
      H382          H  0.7936200  0.6016662  0.5031783    0.00000       Uiso       1.00
      H383          H  0.7945651  0.6260183  0.5068553    0.00000       Uiso       1.00
      H384          H  0.7970041  0.6217002  0.5288124    0.00000       Uiso       1.00
      C396          C  0.0259196  0.4857801  0.4889128    0.00000       Uiso       1.00
      H385          H  0.0134555  0.4967985  0.4802755    0.00000       Uiso       1.00
      H386          H  0.0334915  0.4711650  0.4780654    0.00000       Uiso       1.00
      H387          H  0.0378107  0.4931282  0.5018932    0.00000       Uiso       1.00
      C397          C  0.9736657  0.5077038  0.4800074    0.00000       Uiso       1.00
      H388          H  0.9839481  0.5092007  0.4752729    0.00000       Uiso       1.00
      H389          H  0.9657314  0.5233513  0.4895881    0.00000       Uiso       1.00
      H390          H  0.9617298  0.5012564  0.4658132    0.00000       Uiso       1.00
      C398          C  0.9195233  0.5199687  0.5895622    0.00000       Uiso       1.00
      H391          H  0.9210231  0.5246997  0.6060759    0.00000       Uiso       1.00
      H392          H  0.9130834  0.5341651  0.5853785    0.00000       Uiso       1.00
      H393          H  0.9351681  0.5103804  0.5876894    0.00000       Uiso       1.00
      C399          C  0.8975897  0.5110705  0.6109850    0.00000       Uiso       1.00
      H394          H  0.9086111  0.5197043  0.6181772    0.00000       Uiso       1.00
      H395          H  0.9049364  0.4980861  0.6172388    0.00000       Uiso       1.00
      H396          H  0.8829772  0.5219197  0.6147939    0.00000       Uiso       1.00
      C400          C  0.9317743  0.4104376  0.4381405    0.00000       Uiso       1.00
      H397          H  0.9365044  0.3939237  0.4278578    0.00000       Uiso       1.00
      H398          H  0.9221881  0.4123110  0.4460725    0.00000       Uiso       1.00
      H399          H  0.9459713  0.4146205  0.4500780    0.00000       Uiso       1.00
      C401          C  0.9228777  0.3890100  0.3858922    0.00000       Uiso       1.00
      H400          H  0.9315101  0.3818198  0.3983568    0.00000       Uiso       1.00
      H401          H  0.9337287  0.3851995  0.3783210    0.00000       Uiso       1.00
      H402          H  0.9098943  0.3827557  0.3740009    0.00000       Uiso       1.00
      C402          C  0.8612404  0.5362686  0.4266446    0.00000       Uiso       1.00
      H403          H  0.8525751  0.5434646  0.4141812    0.00000       Uiso       1.00
      H404          H  0.8744401  0.5422618  0.4383298    0.00000       Uiso       1.00
      H405          H  0.8505034  0.5403603  0.4344795    0.00000       Uiso       1.00
      C403          C  0.8517000  0.5148004  0.3742634    0.00000       Uiso       1.00
      H406          H  0.8470047  0.5313175  0.3845522    0.00000       Uiso       1.00
      H407          H  0.8374834  0.5106781  0.3622833    0.00000       Uiso       1.00
      H408          H  0.8613651  0.5128722  0.3663841    0.00000       Uiso       1.00
      C404          C  0.8584951  0.5249325  0.4875482    0.00000       Uiso       1.00
      H409          H  0.8681288  0.5082654  0.4820641    0.00000       Uiso       1.00
      H410          H  0.8471899  0.5302497  0.4738522    0.00000       Uiso       1.00
      H411          H  0.8498161  0.5265702  0.4962808    0.00000       Uiso       1.00
      C405          C  0.9438322  0.5329724  0.5343624    0.00000       Uiso       1.00
      H412          H  0.9484429  0.5157661  0.5262712    0.00000       Uiso       1.00
      H413          H  0.9502720  0.5363508  0.5515593    0.00000       Uiso       1.00
      H414          H  0.9501241  0.5398698  0.5302580    0.00000       Uiso       1.00
      C406          C  0.8774580  0.4693461  0.4679714    0.00000       Uiso       1.00
      H415          H  0.8855491  0.4738551  0.4633648    0.00000       Uiso       1.00
      H416          H  0.8602603  0.4767150  0.4615219    0.00000       Uiso       1.00
      H417          H  0.8815725  0.4520516  0.4616857    0.00000       Uiso       1.00
      C407          C  0.9242739  0.5159016  0.5533128    0.00000       Uiso       1.00
      H418          H  0.9297587  0.5174511  0.5436797    0.00000       Uiso       1.00
      H419          H  0.9379689  0.5081823  0.5646096    0.00000       Uiso       1.00
      H420          H  0.9155517  0.5316761  0.5620010    0.00000       Uiso       1.00
      C408          C  0.9367313  0.5124440  0.4840671    0.00000       Uiso       1.00
      H421          H  0.9200646  0.5179301  0.4825201    0.00000       Uiso       1.00
      H422          H  0.9383686  0.5037035  0.4682932    0.00000       Uiso       1.00
      H423          H  0.9420471  0.5261393  0.4917655    0.00000       Uiso       1.00
      C409          C  0.9447775  0.4656644  0.5306711    0.00000       Uiso       1.00
      H424          H  0.9275708  0.4737538  0.5261641    0.00000       Uiso       1.00
      H425          H  0.9516735  0.4697783  0.5479653    0.00000       Uiso       1.00
      H426          H  0.9481589  0.4484665  0.5233025    0.00000       Uiso       1.00
      C410          C  0.8811683  0.5320327  0.4670296    0.00000       Uiso       1.00
      H427          H  0.8856728  0.5366446  0.4842360    0.00000       Uiso       1.00
      H428          H  0.8638750  0.5383275  0.4601329    0.00000       Uiso       1.00
      H429          H  0.8885494  0.5384684  0.4636489    0.00000       Uiso       1.00
      C411          C  0.9277087  0.4466973  0.4750782    0.00000       Uiso       1.00
      H430          H  0.9292560  0.4563350  0.4917439    0.00000       Uiso       1.00
      H431          H  0.9434840  0.4380105  0.4734437    0.00000       Uiso       1.00
      H432          H  0.9199936  0.4353987  0.4697624    0.00000       Uiso       1.00
      C412          C  0.7374592  0.8147058  0.5970939    0.00000       Uiso       1.00
      C413          C  0.7247502  0.8021589  0.5736351    0.00000       Uiso       1.00
      C414          C  0.6992669  0.8129378  0.5628595    0.00000       Uiso       1.00
      C415          C  0.7247496  0.8381648  0.6096411    0.00000       Uiso       1.00
      C416          C  0.6993484  0.8490443  0.5988912    0.00000       Uiso       1.00
      C417          C  0.6859403  0.8366484  0.5752742    0.00000       Uiso       1.00
      C418          C  0.4029134  0.8685296  0.2625479    0.00000       Uiso       1.00
      C419          C  0.4263724  0.8703270  0.2752572    0.00000       Uiso       1.00
      C420          C  0.4372514  0.8740987  0.3006579    0.00000       Uiso       1.00
      C421          C  0.3903657  0.8703270  0.2752572    0.00000       Uiso       1.00
      C422          C  0.4011440  0.8742557  0.3007403    0.00000       Uiso       1.00
      C423          C  0.4248542  0.8762864  0.3140653    0.00000       Uiso       1.00
      C424          C  0.4029082  0.1492588  0.5432776    0.00000       Uiso       1.00
      C425          C  0.3903608  0.1365494  0.5414801    0.00000       Uiso       1.00
      C426          C  0.4011091  0.1111479  0.5377049    0.00000       Uiso       1.00
      C427          C  0.4263675  0.1365494  0.5414801    0.00000       Uiso       1.00
      C428          C  0.4371417  0.1110654  0.5375470    0.00000       Uiso       1.00
      C429          C  0.4247244  0.0977391  0.5355138    0.00000       Uiso       1.00
      C430          C  0.4567243  0.8147058  0.5970939    0.00000       Uiso       1.00
      C431          C  0.4585216  0.8381648  0.6096410    0.00000       Uiso       1.00
      C432          C  0.4624505  0.8489410  0.5988624    0.00000       Uiso       1.00
      C433          C  0.4585223  0.8021589  0.5736350    0.00000       Uiso       1.00
      C434          C  0.4622936  0.8129095  0.5627556    0.00000       Uiso       1.00
      C435          C  0.4644805  0.8365266  0.5751518    0.00000       Uiso       1.00
      C436          C  0.5000005  0.9118000  0.5000003    0.00000       Uiso       1.00
      C437          C  0.4405785  0.1501807  0.5434883    0.00000       Uiso       1.00
      H433          H  0.4560873  0.1390022  0.5418967    0.00000       Uiso       1.00
      H434          H  0.4428188  0.1627646  0.5589567    0.00000       Uiso       1.00
      H435          H  0.4315963  0.1571843  0.5308502    0.00000       Uiso       1.00
      C438          C  0.3645317  0.8683190  0.2616260    0.00000       Uiso       1.00
      H436          H  0.3586098  0.8699103  0.2728044    0.00000       Uiso       1.00
      H437          H  0.3651761  0.8528505  0.2490421    0.00000       Uiso       1.00
      H438          H  0.3538727  0.8809575  0.2546228    0.00000       Uiso       1.00
      C439          C  0.7383804  0.8523754  0.6354749    0.00000       Uiso       1.00
      H439          H  0.7272018  0.8678840  0.6413964    0.00000       Uiso       1.00
      H440          H  0.7509646  0.8546159  0.6348308    0.00000       Uiso       1.00
      H441          H  0.7453836  0.8433927  0.6461338    0.00000       Uiso       1.00
      C440          C  0.4565144  0.7763249  0.5594243    0.00000       Uiso       1.00
      H442          H  0.4581062  0.7704034  0.5439158    0.00000       Uiso       1.00
      H443          H  0.4410456  0.7769690  0.5571838    0.00000       Uiso       1.00
      H444          H  0.4691525  0.7656655  0.5684066    0.00000       Uiso       1.00
      C441          C  0.7383819  0.7763249  0.5594243    0.00000       Uiso       1.00
      H445          H  0.7272037  0.7704034  0.5439159    0.00000       Uiso       1.00
      H446          H  0.7453850  0.7656655  0.5684066    0.00000       Uiso       1.00
      H447          H  0.7509662  0.7769689  0.5571839    0.00000       Uiso       1.00
      C442          C  0.4565129  0.8523754  0.6354748    0.00000       Uiso       1.00
      H448          H  0.4581043  0.8678841  0.6413964    0.00000       Uiso       1.00
      H449          H  0.4691511  0.8433927  0.6461338    0.00000       Uiso       1.00
      H450          H  0.4410442  0.8546159  0.6348308    0.00000       Uiso       1.00
      C443          C  0.4405837  0.8683190  0.2616260    0.00000       Uiso       1.00
      H451          H  0.4560923  0.8699104  0.2728044    0.00000       Uiso       1.00
      H452          H  0.4316013  0.8809577  0.2546229    0.00000       Uiso       1.00
      H453          H  0.4428245  0.8528506  0.2490421    0.00000       Uiso       1.00
      C444          C  0.3645265  0.1501807  0.5434883    0.00000       Uiso       1.00
      H454          H  0.3586048  0.1390022  0.5418967    0.00000       Uiso       1.00
      H455          H  0.3538676  0.1571842  0.5308501    0.00000       Uiso       1.00
      H456          H  0.3651702  0.1627646  0.5589566    0.00000       Uiso       1.00
      C445          C  0.4651497  0.8744746  0.6138102    0.00000       Uiso       1.00
      H457          H  0.4676787  0.8794453  0.6044478    0.00000       Uiso       1.00
      H458          H  0.4787451  0.8738586  0.6284735    0.00000       Uiso       1.00
      H459          H  0.4506904  0.8858714  0.6177303    0.00000       Uiso       1.00
      C446          C  0.4635471  0.7984114  0.5366435    0.00000       Uiso       1.00
      H460          H  0.4661240  0.8076786  0.5316015    0.00000       Uiso       1.00
      H461          H  0.4486059  0.7952802  0.5257747    0.00000       Uiso       1.00
      H462          H  0.4766847  0.7833316  0.5364460    0.00000       Uiso       1.00
      C447          C  0.4633633  0.8753526  0.3135246    0.00000       Uiso       1.00
      H463          H  0.4684050  0.8779297  0.3304105    0.00000       Uiso       1.00
      H464          H  0.4635602  0.8884901  0.3117792    0.00000       Uiso       1.00
      H465          H  0.4742329  0.8604115  0.3063215    0.00000       Uiso       1.00
      C448          C  0.3861947  0.8769529  0.3140232    0.00000       Uiso       1.00
      H466          H  0.3955558  0.8794820  0.3308850    0.00000       Uiso       1.00
      H467          H  0.3822763  0.8624927  0.3070402    0.00000       Uiso       1.00
      H468          H  0.3715303  0.8905475  0.3123384    0.00000       Uiso       1.00
      C449          C  0.4626745  0.0977860  0.5348455    0.00000       Uiso       1.00
      H469          H  0.4676476  0.0809230  0.5323135    0.00000       Uiso       1.00
      H470          H  0.4740706  0.1047683  0.5493050    0.00000       Uiso       1.00
      H471          H  0.4620560  0.0994750  0.5212515    0.00000       Uiso       1.00
      C450          C  0.3866092  0.0982783  0.5364459    0.00000       Uiso       1.00
      H472          H  0.3958761  0.0813920  0.5338668    0.00000       Uiso       1.00
      H473          H  0.3715302  0.1000249  0.5233082    0.00000       Uiso       1.00
      H474          H  0.3834766  0.1054788  0.5513861    0.00000       Uiso       1.00
      C451          C  0.6864808  0.8751568  0.6133890    0.00000       Uiso       1.00
      H475          H  0.6695949  0.8801986  0.6041221    0.00000       Uiso       1.00
      H476          H  0.6936839  0.8860258  0.6165193    0.00000       Uiso       1.00
      H477          H  0.6882256  0.8753546  0.6284689    0.00000       Uiso       1.00
      C452          C  0.6859822  0.7979921  0.5373245    0.00000       Uiso       1.00
      H478          H  0.6691204  0.8073548  0.5323548    0.00000       Uiso       1.00
      H479          H  0.6876661  0.7833271  0.5379378    0.00000       Uiso       1.00
      H480          H  0.6929649  0.7940747  0.5259289    0.00000       Uiso       1.00
      C453          C  0.6584177  0.8482947  0.5638876    0.00000       Uiso       1.00
      C454          C  0.6470161  0.8433802  0.5382459    0.00000       Uiso       1.00
      C455          C  0.6214375  0.8540630  0.5276375    0.00000       Uiso       1.00
      C456          C  0.6432114  0.8644847  0.5785993    0.00000       Uiso       1.00
      C457          C  0.6176692  0.8754484  0.5682375    0.00000       Uiso       1.00
      C458          C  0.6067126  0.8702004  0.5426726    0.00000       Uiso       1.00
      C459          C  0.4365000  0.8807768  0.3415859    0.00000       Uiso       1.00
      C460          C  0.4526816  0.8945134  0.3567918    0.00000       Uiso       1.00
      C461          C  0.4636458  0.8987293  0.3823331    0.00000       Uiso       1.00
      C462          C  0.4315957  0.8714414  0.3529866    0.00000       Uiso       1.00
      C463          C  0.4422790  0.8757282  0.3785633    0.00000       Uiso       1.00
      C464          C  0.4584066  0.8893594  0.3932882    0.00000       Uiso       1.00
      C465          C  0.4361065  0.0702166  0.5310197    0.00000       Uiso       1.00
      C466          C  0.4213911  0.0550131  0.5172915    0.00000       Uiso       1.00
      C467          C  0.4317519  0.0294685  0.5130745    0.00000       Uiso       1.00
      C468          C  0.4617473  0.0588138  0.5403451    0.00000       Uiso       1.00
      C469          C  0.4723530  0.0332368  0.5360564    0.00000       Uiso       1.00
      C470          C  0.4573197  0.0185111  0.5224354    0.00000       Uiso       1.00
      C471          C  0.4689709  0.8479131  0.5635060    0.00000       Uiso       1.00
      C472          C  0.4596379  0.8735540  0.5684129    0.00000       Uiso       1.00
      C473          C  0.4639280  0.8841626  0.5577326    0.00000       Uiso       1.00
      C474          C  0.4827060  0.8332018  0.5473231    0.00000       Uiso       1.00
      C475          C  0.4869223  0.8435639  0.5363591    0.00000       Uiso       1.00
      C476          C  0.4775575  0.8691280  0.5416022    0.00000       Uiso       1.00
      C477          C  0.4548682  0.9096364  0.5629348    0.00000       Uiso       1.00
      C478          C  0.4594778  0.9200563  0.5525356    0.00000       Uiso       1.00
      C479          C  0.4370822  0.8666610  0.3897740    0.00000       Uiso       1.00
      C480          C  0.4474837  0.8712663  0.4152009    0.00000       Uiso       1.00
      C481          C  0.4196026  0.8516591  0.3742603    0.00000       Uiso       1.00
      H481          H  0.4180763  0.8469586  0.3845498    0.00000       Uiso       1.00
      H482          H  0.4259661  0.8374454  0.3622811    0.00000       Uiso       1.00
      H483          H  0.4039828  0.8613186  0.3663799    0.00000       Uiso       1.00
      C482          C  0.4409766  0.8611981  0.4266382    0.00000       Uiso       1.00
      H484          H  0.4492987  0.8657180  0.4438044    0.00000       Uiso       1.00
      H485          H  0.4457998  0.8438641  0.4196472    0.00000       Uiso       1.00
      H486          H  0.4238174  0.8678012  0.4235185    0.00000       Uiso       1.00
      C483          C  0.4494176  0.9480684  0.5590438    0.00000       Uiso       1.00
      H487          H  0.4539414  0.9523890  0.5507216    0.00000       Uiso       1.00
      H488          H  0.4560221  0.9555030  0.5762029    0.00000       Uiso       1.00
      H489          H  0.4320833  0.9535934  0.5542217    0.00000       Uiso       1.00
      C484          C  0.4398673  0.9265987  0.5804161    0.00000       Uiso       1.00
      H490          H  0.4351699  0.9431165  0.5819494    0.00000       Uiso       1.00
      H491          H  0.4495263  0.9246719  0.5960332    0.00000       Uiso       1.00
      H492          H  0.4256519  0.9224718  0.5740499    0.00000       Uiso       1.00
      C485          C  0.6627462  0.8264050  0.5214548    0.00000       Uiso       1.00
      H493          H  0.6525489  0.8249243  0.5049223    0.00000       Uiso       1.00
      H494          H  0.6708385  0.8107111  0.5232399    0.00000       Uiso       1.00
      H495          H  0.6745547  0.8331078  0.5258437    0.00000       Uiso       1.00
      C486          C  0.6544695  0.8699424  0.6064885    0.00000       Uiso       1.00
      H496          H  0.6420360  0.8810186  0.6137118    0.00000       Uiso       1.00
      H497          H  0.6666573  0.8770273  0.6130738    0.00000       Uiso       1.00
      H498          H  0.6616603  0.8551485  0.6098843    0.00000       Uiso       1.00
      C487          C  0.4938845  0.8053135  0.5418729    0.00000       Uiso       1.00
      H499          H  0.5024701  0.7980891  0.5308008    0.00000       Uiso       1.00
      H500          H  0.4811993  0.7987247  0.5347859    0.00000       Uiso       1.00
      H501          H  0.5048798  0.8019225  0.5566696    0.00000       Uiso       1.00
      C488          C  0.4440794  0.8903397  0.5853763    0.00000       Uiso       1.00
      H502          H  0.4392194  0.9068729  0.5868550    0.00000       Uiso       1.00
      H503          H  0.4534602  0.8885583  0.6010719    0.00000       Uiso       1.00
      H504          H  0.4299607  0.8859428  0.5786665    0.00000       Uiso       1.00
      C489          C  0.4581291  0.9056965  0.3455341    0.00000       Uiso       1.00
      H505          H  0.4692005  0.9142821  0.3579676    0.00000       Uiso       1.00
      H506          H  0.4433313  0.9166924  0.3383435    0.00000       Uiso       1.00
      H507          H  0.4652163  0.8930135  0.3333465    0.00000       Uiso       1.00
      C490          C  0.4146334  0.8558827  0.3372628    0.00000       Uiso       1.00
      H508          H  0.4131618  0.8510249  0.3474639    0.00000       Uiso       1.00
      H509          H  0.4213399  0.8417627  0.3254555    0.00000       Uiso       1.00
      H510          H  0.3989350  0.8652624  0.3291695    0.00000       Uiso       1.00
      C491          C  0.4785470  0.0745346  0.5558942    0.00000       Uiso       1.00
      H511          H  0.4950776  0.0643315  0.5607457    0.00000       Uiso       1.00
      H512          H  0.4741602  0.0863421  0.5700179    0.00000       Uiso       1.00
      H513          H  0.4767667  0.0826280  0.5465112    0.00000       Uiso       1.00
      C492          C  0.3935028  0.0662820  0.5061229    0.00000       Uiso       1.00
      H514          H  0.3862731  0.0538536  0.4975412    0.00000       Uiso       1.00
      H515          H  0.3901109  0.0734730  0.4951257    0.00000       Uiso       1.00
      H516          H  0.3869203  0.0784711  0.5188119    0.00000       Uiso       1.00
      C493          C  0.5809572  0.8809646  0.5321156    0.00000       Uiso       1.00
      C494          C  0.5699037  0.8753638  0.5065306    0.00000       Uiso       1.00
      C495          C  0.5442066  0.8855482  0.4960831    0.00000       Uiso       1.00
      C496          C  0.5662540  0.8970072  0.5471413    0.00000       Uiso       1.00
      C497          C  0.5406752  0.9073187  0.5365283    0.00000       Uiso       1.00
      C498          C  0.5289223  0.9020131  0.5108023    0.00000       Uiso       1.00
      C499          C  0.4691704  0.8937914  0.4190423    0.00000       Uiso       1.00
      C500          C  0.4852059  0.9074858  0.4337469    0.00000       Uiso       1.00
      C501          C  0.4955185  0.9121389  0.4593262    0.00000       Uiso       1.00
      C502          C  0.4635787  0.8848499  0.4300954    0.00000       Uiso       1.00
      C503          C  0.4737614  0.8899168  0.4557931    0.00000       Uiso       1.00
      C504          C  0.4902162  0.9034665  0.4710786    0.00000       Uiso       1.00
      C505          C  0.4678807  0.9927579  0.5180052    0.00000       Uiso       1.00
      C506          C  0.4528547  0.9780544  0.5043215    0.00000       Uiso       1.00
      C507          C  0.4634698  0.9524751  0.4996686    0.00000       Uiso       1.00
      C508          C  0.4934683  0.9817047  0.5269361    0.00000       Uiso       1.00
      C509          C  0.5039178  0.9560065  0.5218688    0.00000       Uiso       1.00
      C510          C  0.4891979  0.9407222  0.5083324    0.00000       Uiso       1.00
      C511          C  0.4819921  0.8796853  0.5308385    0.00000       Uiso       1.00
      C512          C  0.4730575  0.9052723  0.5364362    0.00000       Uiso       1.00
      C513          C  0.4781260  0.9157197  0.5262524    0.00000       Uiso       1.00
      C514          C  0.4956795  0.8646585  0.5147955    0.00000       Uiso       1.00
      C515          C  0.5003319  0.8752709  0.5044803    0.00000       Uiso       1.00
      C516          C  0.4916671  0.9009984  0.5097883    0.00000       Uiso       1.00
      C517          C  0.5082523  0.9965991  0.5405088    0.00000       Uiso       1.00
      C518          C  0.4978302  0.0220266  0.5451148    0.00000       Uiso       1.00
      C519          C  0.4273876  0.9892052  0.4951721    0.00000       Uiso       1.00
      C520          C  0.4169789  0.0145690  0.4994634    0.00000       Uiso       1.00
      C521          C  0.5847974  0.8592576  0.4917449    0.00000       Uiso       1.00
      C522          C  0.6102259  0.8488547  0.5021631    0.00000       Uiso       1.00
      C523          C  0.5774053  0.9021752  0.5726089    0.00000       Uiso       1.00
      C524          C  0.6027724  0.8915112  0.5830150    0.00000       Uiso       1.00
      C525          C  0.5048303  0.8391911  0.5096309    0.00000       Uiso       1.00
      C526          C  0.5005365  0.8287870  0.5202986    0.00000       Uiso       1.00
      C527          C  0.4903645  0.9166442  0.4225962    0.00000       Uiso       1.00
      C528          C  0.4797002  0.9123492  0.3972309    0.00000       Uiso       1.00
      C529          C  0.6257470  0.8313628  0.4852028    0.00000       Uiso       1.00
      H517          H  0.6154616  0.8298254  0.4686842    0.00000       Uiso       1.00
      H518          H  0.6336282  0.8157483  0.4871351    0.00000       Uiso       1.00
      H519          H  0.6377259  0.8377240  0.4893263    0.00000       Uiso       1.00
      C530          C  0.5733585  0.8527387  0.4637320    0.00000       Uiso       1.00
      H520          H  0.5858223  0.8417445  0.4565363    0.00000       Uiso       1.00
      H521          H  0.5655241  0.8672187  0.4596402    0.00000       Uiso       1.00
      H522          H  0.5616728  0.8452314  0.4577386    0.00000       Uiso       1.00
      C531          C  0.5618679  0.9195252  0.5895642    0.00000       Uiso       1.00
      H523          H  0.5721531  0.9210256  0.6060773    0.00000       Uiso       1.00
      H524          H  0.5499312  0.9130827  0.5853839    0.00000       Uiso       1.00
      H525          H  0.5539347  0.9351702  0.5876911    0.00000       Uiso       1.00
      C532          C  0.6141246  0.8976001  0.6109857    0.00000       Uiso       1.00
      H526          H  0.6016634  0.9086228  0.6181805    0.00000       Uiso       1.00
      H527          H  0.6260156  0.9049457  0.6172354    0.00000       Uiso       1.00
      H528          H  0.6216978  0.8829883  0.6147959    0.00000       Uiso       1.00
      C533          C  0.4857815  0.9228932  0.3858854    0.00000       Uiso       1.00
      H529          H  0.4967994  0.9315304  0.3983494    0.00000       Uiso       1.00
      H530          H  0.4711663  0.9337409  0.3783138    0.00000       Uiso       1.00
      H531          H  0.4931301  0.9099127  0.3739943    0.00000       Uiso       1.00
      C534          C  0.5077040  0.9317977  0.4381388    0.00000       Uiso       1.00
      H532          H  0.5092009  0.9365325  0.4278567    0.00000       Uiso       1.00
      H533          H  0.5233514  0.9222167  0.4460728    0.00000       Uiso       1.00
      H534          H  0.5012561  0.9459919  0.4500747    0.00000       Uiso       1.00
      C535          C  0.5199699  0.8222397  0.4922780    0.00000       Uiso       1.00
      H535          H  0.5247014  0.8057257  0.4907780    0.00000       Uiso       1.00
      H536          H  0.5341662  0.8264234  0.4987179    0.00000       Uiso       1.00
      H537          H  0.5103819  0.8241128  0.4766335    0.00000       Uiso       1.00
      C536          C  0.5110718  0.8008160  0.5142107    0.00000       Uiso       1.00
      H538          H  0.5197060  0.7936239  0.5031894    0.00000       Uiso       1.00
      H539          H  0.4980876  0.7945623  0.5068641    0.00000       Uiso       1.00
      H540          H  0.5219207  0.7970068  0.5288229    0.00000       Uiso       1.00
      C537          C  0.4104362  0.9736645  0.4800302    0.00000       Uiso       1.00
      H541          H  0.3939222  0.9839476  0.4753005    0.00000       Uiso       1.00
      H542          H  0.4123095  0.9657322  0.4896161    0.00000       Uiso       1.00
      H543          H  0.4146196  0.9617271  0.4658332    0.00000       Uiso       1.00
      C538          C  0.3890076  0.0259135  0.4889276    0.00000       Uiso       1.00
      H544          H  0.3818177  0.0134488  0.4802952    0.00000       Uiso       1.00
      H545          H  0.3851971  0.0334851  0.4780771    0.00000       Uiso       1.00
      H546          H  0.3827527  0.0378047  0.5019110    0.00000       Uiso       1.00
      C539          C  0.5362655  0.9851593  0.5505630    0.00000       Uiso       1.00
      H547          H  0.5434612  0.9976228  0.5592284    0.00000       Uiso       1.00
      H548          H  0.5422592  0.9734741  0.5373632    0.00000       Uiso       1.00
      H549          H  0.5403572  0.9773241  0.5612996    0.00000       Uiso       1.00
      C540          C  0.5147963  0.0375411  0.5601042    0.00000       Uiso       1.00
      H550          H  0.5313135  0.0272520  0.5647992    0.00000       Uiso       1.00
      H551          H  0.5106735  0.0495212  0.5743207    0.00000       Uiso       1.00
      H552          H  0.5128682  0.0454207  0.5504394    0.00000       Uiso       1.00
      C541          C  0.5249306  0.9242545  0.5533070    0.00000       Uiso       1.00
      H553          H  0.5082636  0.9297388  0.5436736    0.00000       Uiso       1.00
      H554          H  0.5302473  0.9379506  0.5646122    0.00000       Uiso       1.00
      H555          H  0.5265683  0.9155216  0.5619857    0.00000       Uiso       1.00
      C542          C  0.5329731  0.8774410  0.4679706    0.00000       Uiso       1.00
      H556          H  0.5157667  0.8855325  0.4633602    0.00000       Uiso       1.00
      H557          H  0.5363520  0.8602439  0.4615307    0.00000       Uiso       1.00
      H558          H  0.5398706  0.8815456  0.4616789    0.00000       Uiso       1.00
      C543          C  0.4693443  0.9438320  0.5343449    0.00000       Uiso       1.00
      H559          H  0.4738533  0.9484389  0.5262541    0.00000       Uiso       1.00
      H560          H  0.4767126  0.9502813  0.5515423    0.00000       Uiso       1.00
      H561          H  0.4520497  0.9501179  0.5302305    0.00000       Uiso       1.00
      C544          C  0.5159023  0.8584899  0.4875282    0.00000       Uiso       1.00
      H562          H  0.5174517  0.8681234  0.4820437    0.00000       Uiso       1.00
      H563          H  0.5081835  0.8471931  0.4738332    0.00000       Uiso       1.00
      H564          H  0.5316768  0.8498014  0.4962501    0.00000       Uiso       1.00
      C545          C  0.5124435  0.9277372  0.4750724    0.00000       Uiso       1.00
      H565          H  0.5179293  0.9292839  0.4917389    0.00000       Uiso       1.00
      H566          H  0.5037028  0.9435114  0.4734355    0.00000       Uiso       1.00
      H567          H  0.5261391  0.9200387  0.4697565    0.00000       Uiso       1.00
      C546          C  0.4656650  0.8811324  0.4670254    0.00000       Uiso       1.00
      H568          H  0.4737540  0.8856393  0.4842319    0.00000       Uiso       1.00
      H569          H  0.4697795  0.8638380  0.4601292    0.00000       Uiso       1.00
      H570          H  0.4484671  0.8885012  0.4636443    0.00000       Uiso       1.00
      C547          C  0.5320308  0.9447739  0.5306346    0.00000       Uiso       1.00
      H571          H  0.5366432  0.9275673  0.5261298    0.00000       Uiso       1.00
      H572          H  0.5383252  0.9516704  0.5479277    0.00000       Uiso       1.00
      H573          H  0.5384666  0.9481549  0.5232537    0.00000       Uiso       1.00
      C548          C  0.4466965  0.9367261  0.4840949    0.00000       Uiso       1.00
      H574          H  0.4563346  0.9200600  0.4825475    0.00000       Uiso       1.00
      H575          H  0.4380100  0.9383609  0.4683200    0.00000       Uiso       1.00
      H576          H  0.4353977  0.9420419  0.4918100    0.00000       Uiso       1.00
      C549          C  0.7374523  0.8146988  0.9550678    0.00000       Uiso       1.00
      C550          C  0.7247428  0.8381581  0.9532703    0.00000       Uiso       1.00
      C551          C  0.6992593  0.8489340  0.9493413    0.00000       Uiso       1.00
      C552          C  0.7247428  0.8021514  0.9532703    0.00000       Uiso       1.00
      C553          C  0.6993416  0.8129016  0.9494984    0.00000       Uiso       1.00
      C554          C  0.6859331  0.8365191  0.9473109    0.00000       Uiso       1.00
      C555          C  0.4028988  0.1492496  0.0088835    0.00000       Uiso       1.00
      C556          C  0.4263578  0.1365398  0.0214307    0.00000       Uiso       1.00
      C557          C  0.4372376  0.1111389  0.0106814    0.00000       Uiso       1.00
      C558          C  0.3903520  0.1365410  0.9854253    0.00000       Uiso       1.00
      C559          C  0.4011310  0.1110576  0.9746500    0.00000       Uiso       1.00
      C560          C  0.4248413  0.0977320  0.9870659    0.00000       Uiso       1.00
      C561          C  0.4028988  0.8685145  0.0088834    0.00000       Uiso       1.00
      C562          C  0.3903520  0.8703131  0.9854252    0.00000       Uiso       1.00
      C563          C  0.4011004  0.8740885  0.9745472    0.00000       Uiso       1.00
      C564          C  0.4263579  0.8703120  0.0214306    0.00000       Uiso       1.00
      C565          C  0.4371321  0.8742453  0.0106540    0.00000       Uiso       1.00
      C566          C  0.4247155  0.8762795  0.9869447    0.00000       Uiso       1.00
      C567          C  0.4567227  0.8147043  0.6743384    0.00000       Uiso       1.00
      C568          C  0.4585201  0.8021566  0.6870475    0.00000       Uiso       1.00
      C569          C  0.4624483  0.8129349  0.7125306    0.00000       Uiso       1.00
      C570          C  0.4585201  0.8381633  0.6870475    0.00000       Uiso       1.00
      C571          C  0.4622906  0.8490425  0.7124482    0.00000       Uiso       1.00
      C572          C  0.4644777  0.8366458  0.7258561    0.00000       Uiso       1.00
      C573          C  0.4999925  0.9117951  0.9117959    0.00000       Uiso       1.00
      C574          C  0.4405684  0.8683032  0.0472643    0.00000       Uiso       1.00
      H577          H  0.4560770  0.8698947  0.0531859    0.00000       Uiso       1.00
      H578          H  0.4428090  0.8528344  0.0466202    0.00000       Uiso       1.00
      H579          H  0.4315857  0.8809413  0.0579233    0.00000       Uiso       1.00
      C575          C  0.3645180  0.1501727  0.9712145    0.00000       Uiso       1.00
      H580          H  0.3585966  0.1389944  0.9557061    0.00000       Uiso       1.00
      H581          H  0.3651622  0.1627568  0.9689741    0.00000       Uiso       1.00
      H582          H  0.3538587  0.1571758  0.9801968    0.00000       Uiso       1.00
      C576          C  0.7383742  0.7763171  0.9552784    0.00000       Uiso       1.00
      H583          H  0.7271957  0.7703954  0.9536869    0.00000       Uiso       1.00
      H584          H  0.7509581  0.7769609  0.9707469    0.00000       Uiso       1.00
      H585          H  0.7453778  0.7656581  0.9426403    0.00000       Uiso       1.00
      C577          C  0.4565122  0.8523747  0.6734165    0.00000       Uiso       1.00
      H586          H  0.4581034  0.8678832  0.6845948    0.00000       Uiso       1.00
      H587          H  0.4410436  0.8546154  0.6608325    0.00000       Uiso       1.00
      H588          H  0.4691507  0.8433923  0.6664132    0.00000       Uiso       1.00
      C578          C  0.7383742  0.8523691  0.9552784    0.00000       Uiso       1.00
      H589          H  0.7271957  0.8678779  0.9536869    0.00000       Uiso       1.00
      H590          H  0.7453777  0.8433869  0.9426402    0.00000       Uiso       1.00
      H591          H  0.7509581  0.8546093  0.9707468    0.00000       Uiso       1.00
      C579          C  0.4565122  0.7763227  0.6734165    0.00000       Uiso       1.00
      H592          H  0.4581035  0.7704007  0.6845948    0.00000       Uiso       1.00
      H593          H  0.4691507  0.7656636  0.6664133    0.00000       Uiso       1.00
      H594          H  0.4410438  0.7769669  0.6608325    0.00000       Uiso       1.00
      C580          C  0.4405684  0.1501707  0.0472645    0.00000       Uiso       1.00
      H595          H  0.4560770  0.1389921  0.0531861    0.00000       Uiso       1.00
      H596          H  0.4315857  0.1571738  0.0579235    0.00000       Uiso       1.00
      H597          H  0.4428089  0.1627549  0.0466204    0.00000       Uiso       1.00
      C581          C  0.3645180  0.8683051  0.9712144    0.00000       Uiso       1.00
      H598          H  0.3585966  0.8698970  0.9557060    0.00000       Uiso       1.00
      H599          H  0.3538587  0.8809434  0.9801968    0.00000       Uiso       1.00
      H600          H  0.3651621  0.8528365  0.9689739    0.00000       Uiso       1.00
      C582          C  0.4651475  0.7979867  0.7258157    0.00000       Uiso       1.00
      H601          H  0.4676760  0.8073489  0.7426772    0.00000       Uiso       1.00
      H602          H  0.4787432  0.7833230  0.7241321    0.00000       Uiso       1.00
      H603          H  0.4506885  0.7940667  0.7188333    0.00000       Uiso       1.00
      C583          C  0.4635434  0.8751549  0.7253150    0.00000       Uiso       1.00
      H604          H  0.4661199  0.8801967  0.7422008    0.00000       Uiso       1.00
      H605          H  0.4486022  0.8860240  0.7181114    0.00000       Uiso       1.00
      H606          H  0.4766811  0.8753524  0.7235704    0.00000       Uiso       1.00
      C584          C  0.4633495  0.0982716  0.0251805    0.00000       Uiso       1.00
      H607          H  0.4683917  0.0813856  0.0159140    0.00000       Uiso       1.00
      H608          H  0.4635459  0.1000167  0.0402600    0.00000       Uiso       1.00
      H609          H  0.4742188  0.1054748  0.0283118    0.00000       Uiso       1.00
      C585          C  0.3861825  0.0977749  0.9491158    0.00000       Uiso       1.00
      H610          H  0.3955440  0.0809129  0.9441445    0.00000       Uiso       1.00
      H611          H  0.3822641  0.1047582  0.9377202    0.00000       Uiso       1.00
      H612          H  0.3715180  0.0994598  0.9497308    0.00000       Uiso       1.00
      C586          C  0.4626646  0.8769466  0.0256086    0.00000       Uiso       1.00
      H613          H  0.4676379  0.8794788  0.0162508    0.00000       Uiso       1.00
      H614          H  0.4740610  0.8624867  0.0295276    0.00000       Uiso       1.00
      H615          H  0.4620456  0.8905405  0.0402725    0.00000       Uiso       1.00
      C587          C  0.3866010  0.8753480  0.9484373    0.00000       Uiso       1.00
      H616          H  0.3958680  0.8779273  0.9433970    0.00000       Uiso       1.00
      H617          H  0.3715218  0.8884861  0.9482424    0.00000       Uiso       1.00
      H618          H  0.3834689  0.8604079  0.9375656    0.00000       Uiso       1.00
      C588          C  0.6864743  0.7984036  0.9482458    0.00000       Uiso       1.00
      H619          H  0.6695882  0.8076707  0.9456683    0.00000       Uiso       1.00
      H620          H  0.6936772  0.7952728  0.9631873    0.00000       Uiso       1.00
      H621          H  0.6882197  0.7833236  0.9351091    0.00000       Uiso       1.00
      C589          C  0.6859742  0.8744695  0.9466454    0.00000       Uiso       1.00
      H622          H  0.6691124  0.8794394  0.9441160    0.00000       Uiso       1.00
      H623          H  0.6876584  0.8738565  0.9330513    0.00000       Uiso       1.00
      H624          H  0.6929563  0.8858651  0.9611057    0.00000       Uiso       1.00
      C590          C  0.6584103  0.8479060  0.9428210    0.00000       Uiso       1.00
      C591          C  0.6470081  0.8735481  0.9521460    0.00000       Uiso       1.00
      C592          C  0.6214293  0.8841566  0.9478584    0.00000       Uiso       1.00
      C593          C  0.6432045  0.8331942  0.9290934    0.00000       Uiso       1.00
      C594          C  0.6176623  0.8435563  0.9248768    0.00000       Uiso       1.00
      C595          C  0.6067050  0.8691216  0.9342364    0.00000       Uiso       1.00
      C596          C  0.4364879  0.0702111  0.9756822    0.00000       Uiso       1.00
      C597          C  0.4526694  0.0550047  0.9903945    0.00000       Uiso       1.00
      C598          C  0.4636343  0.0294631  0.9800341    0.00000       Uiso       1.00
      C599          C  0.4315842  0.0588107  0.9500425    0.00000       Uiso       1.00
      C600          C  0.4422682  0.0332338  0.9394367    0.00000       Uiso       1.00
      C601          C  0.4583958  0.0185082  0.9544705    0.00000       Uiso       1.00
      C602          C  0.4360977  0.8807738  0.9752985    0.00000       Uiso       1.00
      C603          C  0.4213824  0.8945026  0.9591078    0.00000       Uiso       1.00
      C604          C  0.4317432  0.8987200  0.9481411    0.00000       Uiso       1.00
      C605          C  0.4617386  0.8714482  0.9802112    0.00000       Uiso       1.00
      C606          C  0.4723444  0.8757372  0.9695287    0.00000       Uiso       1.00
      C607          C  0.4573111  0.8893588  0.9533907    0.00000       Uiso       1.00
      C608          C  0.4689672  0.8482913  0.7533780    0.00000       Uiso       1.00
      C609          C  0.4596341  0.8433841  0.7647789    0.00000       Uiso       1.00
      C610          C  0.4639235  0.8540640  0.7903572    0.00000       Uiso       1.00
      C611          C  0.4827017  0.8644742  0.7685841    0.00000       Uiso       1.00
      C612          C  0.4869173  0.8754379  0.7941257    0.00000       Uiso       1.00
      C613          C  0.4775523  0.8701945  0.8050818    0.00000       Uiso       1.00
      C614          C  0.4548635  0.8488616  0.8015688    0.00000       Uiso       1.00
      C615          C  0.4594724  0.8592604  0.8269968    0.00000       Uiso       1.00
      C616          C  0.4370722  0.0220233  0.9139626    0.00000       Uiso       1.00
      C617          C  0.4474742  0.9965963  0.9035432    0.00000       Uiso       1.00
      C618          C  0.4195926  0.0375376  0.8969949    0.00000       Uiso       1.00
      H625          H  0.4180667  0.0272483  0.8804791    0.00000       Uiso       1.00
      H626          H  0.4259557  0.0495170  0.9011236    0.00000       Uiso       1.00
      H627          H  0.4039726  0.0454181  0.8989148    0.00000       Uiso       1.00
      C619          C  0.4409679  0.9851594  0.8755315    0.00000       Uiso       1.00
      H628          H  0.4492903  0.9679929  0.8712077    0.00000       Uiso       1.00
      H629          H  0.4457910  0.9921505  0.8700116    0.00000       Uiso       1.00
      H630          H  0.4238087  0.9882792  0.8680951    0.00000       Uiso       1.00
      C620          C  0.4494121  0.8527519  0.8384404    0.00000       Uiso       1.00
      H631          H  0.4539354  0.8610740  0.8556066    0.00000       Uiso       1.00
      H632          H  0.4560170  0.8355926  0.8353209    0.00000       Uiso       1.00
      H633          H  0.4320779  0.8575742  0.8314533    0.00000       Uiso       1.00
      C621          C  0.4398633  0.8313802  0.7860496    0.00000       Uiso       1.00
      H634          H  0.4351658  0.8298467  0.7963366    0.00000       Uiso       1.00
      H635          H  0.4495228  0.8157631  0.7781653    0.00000       Uiso       1.00
      H636          H  0.4256480  0.8377468  0.7740736    0.00000       Uiso       1.00
      C622          C  0.6627375  0.8903391  0.9676914    0.00000       Uiso       1.00
      H637          H  0.6525397  0.9068719  0.9725454    0.00000       Uiso       1.00
      H638          H  0.6708300  0.8885543  0.9583049    0.00000       Uiso       1.00
      H639          H  0.6745458  0.8859497  0.9818135    0.00000       Uiso       1.00
      C623          C  0.6544634  0.8053048  0.9179210    0.00000       Uiso       1.00
      H640          H  0.6420302  0.7980814  0.9093406    0.00000       Uiso       1.00
      H641          H  0.6666511  0.7987192  0.9306083    0.00000       Uiso       1.00
      H642          H  0.6616545  0.8019091  0.9069223    0.00000       Uiso       1.00
      C624          C  0.4938802  0.8699248  0.7573245    0.00000       Uiso       1.00
      H643          H  0.5024654  0.8809968  0.7697574    0.00000       Uiso       1.00
      H644          H  0.4811952  0.8770121  0.7451378    0.00000       Uiso       1.00
      H645          H  0.5048760  0.8551279  0.7501326    0.00000       Uiso       1.00
      C625          C  0.4440762  0.8264207  0.7490433    0.00000       Uiso       1.00
      H646          H  0.4392161  0.8249418  0.7592376    0.00000       Uiso       1.00
      H647          H  0.4534575  0.8107249  0.7409477    0.00000       Uiso       1.00
      H648          H  0.4299577  0.8331308  0.7372376    0.00000       Uiso       1.00
      C626          C  0.4581161  0.0662616  0.0182814    0.00000       Uiso       1.00
      H649          H  0.4691876  0.0538277  0.0255051    0.00000       Uiso       1.00
      H650          H  0.4433179  0.0734522  0.0216699    0.00000       Uiso       1.00
      H651          H  0.4652028  0.0784493  0.0248728    0.00000       Uiso       1.00
      C627          C  0.4146220  0.0745351  0.9332454    0.00000       Uiso       1.00
      H652          H  0.4131508  0.0643342  0.9167153    0.00000       Uiso       1.00
      H653          H  0.4213282  0.0863426  0.9376389    0.00000       Uiso       1.00
      H654          H  0.3989234  0.0826286  0.9350199    0.00000       Uiso       1.00
      C628          C  0.4785382  0.8558984  0.9971824    0.00000       Uiso       1.00
      H655          H  0.4950688  0.8510469  0.9986586    0.00000       Uiso       1.00
      H656          H  0.4741519  0.8417745  0.9904799    0.00000       Uiso       1.00
      H657          H  0.4767573  0.8652808  0.0128775    0.00000       Uiso       1.00
      C629          C  0.3934939  0.9056715  0.9536569    0.00000       Uiso       1.00
      H658          H  0.3862643  0.9142537  0.9425806    0.00000       Uiso       1.00
      H659          H  0.3901016  0.9166686  0.9684527    0.00000       Uiso       1.00
      H660          H  0.3869119  0.8929825  0.9465749    0.00000       Uiso       1.00
      C630          C  0.5809494  0.8796788  0.9298021    0.00000       Uiso       1.00
      C631          C  0.5698953  0.9052641  0.9387321    0.00000       Uiso       1.00
      C632          C  0.5441981  0.9157120  0.9336668    0.00000       Uiso       1.00
      C633          C  0.5662467  0.8646532  0.9161163    0.00000       Uiso       1.00
      C634          C  0.5406680  0.8752664  0.9114619    0.00000       Uiso       1.00
      C635          C  0.5289142  0.9009927  0.9201287    0.00000       Uiso       1.00
      C636          C  0.4691602  0.9927542  0.9439130    0.00000       Uiso       1.00
      C637          C  0.4851956  0.9780489  0.9589382    0.00000       Uiso       1.00
      C638          C  0.4955089  0.9524693  0.9483254    0.00000       Uiso       1.00
      C639          C  0.4635693  0.9817013  0.9183275    0.00000       Uiso       1.00
      C640          C  0.4737526  0.9560032  0.9078800    0.00000       Uiso       1.00
      C641          C  0.4902074  0.9407172  0.9225990    0.00000       Uiso       1.00
      C642          C  0.4678724  0.8937892  0.9426287    0.00000       Uiso       1.00
      C643          C  0.4528465  0.9074736  0.9265831    0.00000       Uiso       1.00
      C644          C  0.4634617  0.9121267  0.9162718    0.00000       Uiso       1.00
      C645          C  0.4934601  0.8848581  0.9482324    0.00000       Uiso       1.00
      C646          C  0.5039096  0.8899257  0.9380510    0.00000       Uiso       1.00
      C647          C  0.4891899  0.9034626  0.9215833    0.00000       Uiso       1.00
      C648          C  0.4819863  0.8809579  0.8308367    0.00000       Uiso       1.00
      C649          C  0.4730515  0.8753599  0.8418913    0.00000       Uiso       1.00
      C650          C  0.4781193  0.8855433  0.8675904    0.00000       Uiso       1.00
      C651          C  0.4956731  0.8970010  0.8455397    0.00000       Uiso       1.00
      C652          C  0.5003247  0.9073159  0.8711190    0.00000       Uiso       1.00
      C653          C  0.4916598  0.9020076  0.8828737    0.00000       Uiso       1.00
      C654          C  0.5082440  0.8712848  0.9643379    0.00000       Uiso       1.00
      C655          C  0.4978217  0.8666784  0.9747373    0.00000       Uiso       1.00
      C656          C  0.4273793  0.9166233  0.9214162    0.00000       Uiso       1.00
      C657          C  0.4169703  0.9123317  0.9320799    0.00000       Uiso       1.00
      C658          C  0.5847884  0.9200499  0.9523048    0.00000       Uiso       1.00
      C659          C  0.6102170  0.9096315  0.9569123    0.00000       Uiso       1.00
      C660          C  0.5773987  0.8391852  0.9069687    0.00000       Uiso       1.00
      C661          C  0.6027660  0.8287787  0.9112658    0.00000       Uiso       1.00
      C662          C  0.5048240  0.9021659  0.8343879    0.00000       Uiso       1.00
      C663          C  0.5005308  0.8914984  0.8090229    0.00000       Uiso       1.00
      C664          C  0.4903536  0.9891993  0.9844052    0.00000       Uiso       1.00
      C665          C  0.4796888  0.0145647  0.9948106    0.00000       Uiso       1.00
      C666          C  0.6257375  0.9265918  0.9719012    0.00000       Uiso       1.00
      H661          H  0.6154517  0.9431105  0.9765965    0.00000       Uiso       1.00
      H662          H  0.6336190  0.9246596  0.9622359    0.00000       Uiso       1.00
      H663          H  0.6377162  0.9224678  0.9861175    0.00000       Uiso       1.00
      C667          C  0.5733488  0.9480631  0.9623592    0.00000       Uiso       1.00
      H664          H  0.5858122  0.9552588  0.9710242    0.00000       Uiso       1.00
      H665          H  0.5655141  0.9521548  0.9730963    0.00000       Uiso       1.00
      H666          H  0.5616632  0.9540569  0.9491596    0.00000       Uiso       1.00
      C668          C  0.5618621  0.8222299  0.8918267    0.00000       Uiso       1.00
      H667          H  0.5721477  0.8057166  0.8870998    0.00000       Uiso       1.00
      H668          H  0.5499255  0.8264105  0.8776280    0.00000       Uiso       1.00
      H669          H  0.5539286  0.8241029  0.9014114    0.00000       Uiso       1.00
      C669          C  0.6141190  0.8008078  0.9007371    0.00000       Uiso       1.00
      H670          H  0.6016581  0.7936130  0.8921040    0.00000       Uiso       1.00
      H671          H  0.6260098  0.7945578  0.9137238    0.00000       Uiso       1.00
      H672          H  0.6216925  0.7969977  0.8898884    0.00000       Uiso       1.00
      C670          C  0.4857691  0.0259094  0.0227798    0.00000       Uiso       1.00
      H673          H  0.4967872  0.0134450  0.0299711    0.00000       Uiso       1.00
      H674          H  0.4711537  0.0334810  0.0265838    0.00000       Uiso       1.00
      H675          H  0.4931173  0.0378006  0.0290388    0.00000       Uiso       1.00
      C671          C  0.5076928  0.9736557  0.0013550    0.00000       Uiso       1.00
      H676          H  0.5091894  0.9839376  0.0178683    0.00000       Uiso       1.00
      H677          H  0.5233407  0.9657220  0.9994882    0.00000       Uiso       1.00
      H678          H  0.5012454  0.9617200  0.9971663    0.00000       Uiso       1.00
      C672          C  0.5199630  0.9195188  0.8499284    0.00000       Uiso       1.00
      H679          H  0.5246946  0.9210190  0.8396460    0.00000       Uiso       1.00
      H680          H  0.5341591  0.9130785  0.8618683    0.00000       Uiso       1.00
      H681          H  0.5103745  0.9351634  0.8578575    0.00000       Uiso       1.00
      C673          C  0.5110663  0.8975868  0.7976753    0.00000       Uiso       1.00
      H682          H  0.5197000  0.9086080  0.8101382    0.00000       Uiso       1.00
      H683          H  0.4980822  0.9049337  0.7857841    0.00000       Uiso       1.00
      H684          H  0.5219157  0.8829743  0.7901032    0.00000       Uiso       1.00
      C674          C  0.4104279  0.9317658  0.9040659    0.00000       Uiso       1.00
      H685          H  0.3939138  0.9364955  0.9025646    0.00000       Uiso       1.00
      H686          H  0.4123017  0.9221800  0.8884215    0.00000       Uiso       1.00
      H687          H  0.4146109  0.9459628  0.9105084    0.00000       Uiso       1.00
      C675          C  0.3889988  0.9228678  0.9259887    0.00000       Uiso       1.00
      H688          H  0.3818091  0.9315006  0.9149666    0.00000       Uiso       1.00
      H689          H  0.3851879  0.9337182  0.9405998    0.00000       Uiso       1.00
      H690          H  0.3827444  0.9098843  0.9186421    0.00000       Uiso       1.00
      C676          C  0.5362574  0.8612303  0.9708574    0.00000       Uiso       1.00
      H691          H  0.5434530  0.8525645  0.9818510    0.00000       Uiso       1.00
      H692          H  0.5422506  0.8744301  0.9783651    0.00000       Uiso       1.00
      H693          H  0.5403495  0.8504938  0.9563777    0.00000       Uiso       1.00
      C677          C  0.5147877  0.8516885  0.9922286    0.00000       Uiso       1.00
      H694          H  0.5313051  0.8469933  0.9937617    0.00000       Uiso       1.00
      H695          H  0.5106654  0.8374717  0.9858697    0.00000       Uiso       1.00
      H696          H  0.5128590  0.8613527  0.0078437    0.00000       Uiso       1.00
      C678          C  0.5249240  0.8584877  0.8958750    0.00000       Uiso       1.00
      H697          H  0.5082567  0.8681213  0.8943256    0.00000       Uiso       1.00
      H698          H  0.5302407  0.8471821  0.9035826    0.00000       Uiso       1.00
      H699          H  0.5265621  0.8498091  0.8801016    0.00000       Uiso       1.00
      C679          C  0.5329639  0.9438248  0.9424379    0.00000       Uiso       1.00
      H700          H  0.5157574  0.9484355  0.9379335    0.00000       Uiso       1.00
      H701          H  0.5363428  0.9502650  0.9350597    0.00000       Uiso       1.00
      H702          H  0.5398608  0.9501163  0.9597312    0.00000       Uiso       1.00
      C680          C  0.4693375  0.8774505  0.8788283    0.00000       Uiso       1.00
      H703          H  0.4738461  0.8855412  0.8960346    0.00000       Uiso       1.00
      H704          H  0.4767063  0.8602528  0.8754490    0.00000       Uiso       1.00
      H705          H  0.4520430  0.8815652  0.8719341    0.00000       Uiso       1.00
      C681          C  0.5158945  0.9242679  0.8868598    0.00000       Uiso       1.00
      H706          H  0.5174435  0.9297522  0.9035268    0.00000       Uiso       1.00
      H707          H  0.5081756  0.9379633  0.8815391    0.00000       Uiso       1.00
      H708          H  0.5316691  0.9155459  0.8852241    0.00000       Uiso       1.00
      C682          C  0.5124340  0.9367225  0.9651025    0.00000       Uiso       1.00
      H709          H  0.5179203  0.9200559  0.9554690    0.00000       Uiso       1.00
      H710          H  0.5036930  0.9383593  0.9737726    0.00000       Uiso       1.00
      H711          H  0.5261293  0.9420382  0.9764151    0.00000       Uiso       1.00
      C683          C  0.4656569  0.9447713  0.8797677    0.00000       Uiso       1.00
      H712          H  0.4737464  0.9275646  0.8751574    0.00000       Uiso       1.00
      H713          H  0.4697714  0.9516677  0.8734838    0.00000       Uiso       1.00
      H714          H  0.4484591  0.9481525  0.8733197    0.00000       Uiso       1.00
      C684          C  0.5320228  0.8811595  0.9461657    0.00000       Uiso       1.00
      H715          H  0.5366352  0.8856646  0.9380763    0.00000       Uiso       1.00
      H716          H  0.5383175  0.8638662  0.9420639    0.00000       Uiso       1.00
      H717          H  0.5384580  0.8885402  0.9633628    0.00000       Uiso       1.00
      C685          C  0.4466884  0.9277011  0.8993232    0.00000       Uiso       1.00
      H718          H  0.4563265  0.9292487  0.8938428    0.00000       Uiso       1.00
      H719          H  0.4380015  0.9434761  0.9080460    0.00000       Uiso       1.00
      H720          H  0.4353900  0.9199861  0.8856255    0.00000       Uiso       1.00
      C686          C  0.8147036  0.8147044  0.6743383    0.00000       Uiso       1.00
      C687          C  0.8021559  0.8381633  0.6870474    0.00000       Uiso       1.00
      C688          C  0.8129342  0.8489387  0.7125305    0.00000       Uiso       1.00
      C689          C  0.8381626  0.8021567  0.6870474    0.00000       Uiso       1.00
      C690          C  0.8490414  0.8129063  0.7124483    0.00000       Uiso       1.00
      C691          C  0.8366447  0.8365235  0.7258565    0.00000       Uiso       1.00
      C692          C  0.8685143  0.1492496  0.0088835    0.00000       Uiso       1.00
      C693          C  0.8703126  0.1365411  0.9854253    0.00000       Uiso       1.00
      C694          C  0.8740849  0.1111400  0.9745460    0.00000       Uiso       1.00
      C695          C  0.8703117  0.1365399  0.0214307    0.00000       Uiso       1.00
      C696          C  0.8742411  0.1110565  0.0106521    0.00000       Uiso       1.00
      C697          C  0.8762727  0.0977321  0.9869426    0.00000       Uiso       1.00
      C698          C  0.1492488  0.8685147  0.0088834    0.00000       Uiso       1.00
      C699          C  0.1365391  0.8703120  0.0214305    0.00000       Uiso       1.00
      C700          C  0.1111377  0.8740875  0.0106825    0.00000       Uiso       1.00
      C701          C  0.1365399  0.8703132  0.9854252    0.00000       Uiso       1.00
      C702          C  0.1110561  0.8742465  0.9746513    0.00000       Uiso       1.00
      C703          C  0.0977295  0.8762796  0.9870683    0.00000       Uiso       1.00
      C704          C  0.8146982  0.8146988  0.9550678    0.00000       Uiso       1.00
      C705          C  0.8381575  0.8021514  0.9532702    0.00000       Uiso       1.00
      C706          C  0.8489335  0.8129303  0.9493416    0.00000       Uiso       1.00
      C707          C  0.8021508  0.8381581  0.9532702    0.00000       Uiso       1.00
      C708          C  0.8129013  0.8490379  0.9494992    0.00000       Uiso       1.00
      C709          C  0.8365186  0.8366415  0.9473121    0.00000       Uiso       1.00
      C710          C  0.9117913  0.9117952  0.9117942    0.00000       Uiso       1.00
      C711          C  0.1501716  0.8683053  0.9712144    0.00000       Uiso       1.00
      H721          H  0.1389933  0.8698971  0.9557059    0.00000       Uiso       1.00
      H722          H  0.1627558  0.8528365  0.9689739    0.00000       Uiso       1.00
      H723          H  0.1571747  0.8809434  0.9801966    0.00000       Uiso       1.00
      C712          C  0.8683029  0.1501708  0.0472644    0.00000       Uiso       1.00
      H724          H  0.8698944  0.1389921  0.0531860    0.00000       Uiso       1.00
      H725          H  0.8528342  0.1627549  0.0466203    0.00000       Uiso       1.00
      H726          H  0.8809410  0.1571739  0.0579234    0.00000       Uiso       1.00
      C713          C  0.8523740  0.7763227  0.6734163    0.00000       Uiso       1.00
      H727          H  0.8678825  0.7704007  0.6845947    0.00000       Uiso       1.00
      H728          H  0.8546147  0.7769670  0.6608324    0.00000       Uiso       1.00
      H729          H  0.8433916  0.7656636  0.6664131    0.00000       Uiso       1.00
      C714          C  0.7763165  0.8523692  0.9552783    0.00000       Uiso       1.00
      H730          H  0.7703948  0.8678779  0.9536868    0.00000       Uiso       1.00
      H731          H  0.7769603  0.8546094  0.9707469    0.00000       Uiso       1.00
      H732          H  0.7656575  0.8433869  0.9426403    0.00000       Uiso       1.00
      C715          C  0.7763219  0.8523747  0.6734163    0.00000       Uiso       1.00
      H733          H  0.7704000  0.8678831  0.6845947    0.00000       Uiso       1.00
      H734          H  0.7656628  0.8433923  0.6664132    0.00000       Uiso       1.00
      H735          H  0.7769662  0.8546154  0.6608324    0.00000       Uiso       1.00
      C716          C  0.8523685  0.7763171  0.9552783    0.00000       Uiso       1.00
      H736          H  0.8678773  0.7703955  0.9536868    0.00000       Uiso       1.00
      H737          H  0.8433863  0.7656582  0.9426402    0.00000       Uiso       1.00
      H738          H  0.8546087  0.7769608  0.9707468    0.00000       Uiso       1.00
      C717          C  0.8683046  0.1501727  0.9712145    0.00000       Uiso       1.00
      H739          H  0.8698965  0.1389945  0.9557061    0.00000       Uiso       1.00
      H740          H  0.8809429  0.1571758  0.9801968    0.00000       Uiso       1.00
      H741          H  0.8528360  0.1627570  0.9689741    0.00000       Uiso       1.00
      C718          C  0.1501699  0.8683033  0.0472643    0.00000       Uiso       1.00
      H742          H  0.1389913  0.8698947  0.0531859    0.00000       Uiso       1.00
      H743          H  0.1571730  0.8809415  0.0579233    0.00000       Uiso       1.00
      H744          H  0.1627541  0.8528346  0.0466203    0.00000       Uiso       1.00
      C719          C  0.8744674  0.7979824  0.9466422    0.00000       Uiso       1.00
      H745          H  0.8794379  0.8073450  0.9441134    0.00000       Uiso       1.00
      H746          H  0.8738520  0.7833190  0.9330468    0.00000       Uiso       1.00
      H747          H  0.8858640  0.7940620  0.9611011    0.00000       Uiso       1.00
      C720          C  0.7984026  0.8751506  0.9482462    0.00000       Uiso       1.00
      H748          H  0.8076698  0.8801927  0.9456695    0.00000       Uiso       1.00
      H749          H  0.7952710  0.8860193  0.9631873    0.00000       Uiso       1.00
      H750          H  0.7833232  0.8753483  0.9351089    0.00000       Uiso       1.00
      C721          C  0.8753396  0.0982736  0.9484344    0.00000       Uiso       1.00
      H751          H  0.8779172  0.0813875  0.9433924    0.00000       Uiso       1.00
      H752          H  0.8884771  0.1000190  0.9482375    0.00000       Uiso       1.00
      H753          H  0.8603985  0.1054771  0.9375651    0.00000       Uiso       1.00
      C722          C  0.8769383  0.0977731  0.0256008    0.00000       Uiso       1.00
      H754          H  0.8794680  0.0809111  0.0162396    0.00000       Uiso       1.00
      H755          H  0.8624780  0.1047560  0.0295193    0.00000       Uiso       1.00
      H756          H  0.8905326  0.0994576  0.0402650    0.00000       Uiso       1.00
      C723          C  0.0977771  0.8769486  0.9491190    0.00000       Uiso       1.00
      H757          H  0.0809141  0.8794807  0.9441460    0.00000       Uiso       1.00
      H758          H  0.1047599  0.8624890  0.9377228    0.00000       Uiso       1.00
      H759          H  0.0994658  0.8905428  0.9497377    0.00000       Uiso       1.00
      C724          C  0.0982678  0.8753462  0.0251821    0.00000       Uiso       1.00
      H760          H  0.0813816  0.8779255  0.0159155    0.00000       Uiso       1.00
      H761          H  0.1000138  0.8884839  0.0402611    0.00000       Uiso       1.00
      H762          H  0.1054686  0.8604058  0.0283144    0.00000       Uiso       1.00
      C725          C  0.8751540  0.7984080  0.7253155    0.00000       Uiso       1.00
      H763          H  0.8801952  0.8076746  0.7422012    0.00000       Uiso       1.00
      H764          H  0.8860231  0.7952777  0.7181123    0.00000       Uiso       1.00
      H765          H  0.8753520  0.7833278  0.7235702    0.00000       Uiso       1.00
      C726          C  0.7979876  0.8744739  0.7258155    0.00000       Uiso       1.00
      H766          H  0.8073500  0.8794433  0.7426770    0.00000       Uiso       1.00
      H767          H  0.7833228  0.8738606  0.7241316    0.00000       Uiso       1.00
      H768          H  0.7940701  0.8858699  0.7188332    0.00000       Uiso       1.00
      C727          C  0.8482902  0.8479097  0.7533789    0.00000       Uiso       1.00
      C728          C  0.8433750  0.8735518  0.7647808    0.00000       Uiso       1.00
      C729          C  0.8540571  0.8841598  0.7903591    0.00000       Uiso       1.00
      C730          C  0.8644802  0.8331974  0.7685847    0.00000       Uiso       1.00
      C731          C  0.8754432  0.8435589  0.7941265    0.00000       Uiso       1.00
      C732          C  0.8701946  0.8691241  0.8050834    0.00000       Uiso       1.00
      C733          C  0.8807638  0.0702111  0.9752966    0.00000       Uiso       1.00
      C734          C  0.8945011  0.0550054  0.9591150    0.00000       Uiso       1.00
      C735          C  0.8987178  0.0294638  0.9481505    0.00000       Uiso       1.00
      C736          C  0.8714286  0.0588102  0.9802006    0.00000       Uiso       1.00
      C737          C  0.8757161  0.0332333  0.9695171    0.00000       Uiso       1.00
      C738          C  0.8893479  0.0185083  0.9533894    0.00000       Uiso       1.00
      C739          C  0.0702071  0.8807740  0.9756866    0.00000       Uiso       1.00
      C740          C  0.0550031  0.8945020  0.9904019    0.00000       Uiso       1.00
      C741          C  0.0294586  0.8987194  0.9800414    0.00000       Uiso       1.00
      C742          C  0.0588050  0.8714489  0.9500460    0.00000       Uiso       1.00
      C743          C  0.0332282  0.8757378  0.9394407    0.00000       Uiso       1.00
      C744          C  0.0185018  0.8893589  0.9544739    0.00000       Uiso       1.00
      C745          C  0.8479049  0.8482876  0.9428220    0.00000       Uiso       1.00
      C746          C  0.8735458  0.8433805  0.9521548    0.00000       Uiso       1.00
      C747          C  0.8841543  0.8540610  0.9478649    0.00000       Uiso       1.00
      C748          C  0.8331937  0.8644711  0.9290875    0.00000       Uiso       1.00
      C749          C  0.8435556  0.8754354  0.9248714    0.00000       Uiso       1.00
      C750          C  0.8691196  0.8701920  0.9342360    0.00000       Uiso       1.00
      C751          C  0.9096280  0.8488585  0.9569244    0.00000       Uiso       1.00
      C752          C  0.9200478  0.8592581  0.9523152    0.00000       Uiso       1.00
      C753          C  0.8666490  0.0220222  0.9747134    0.00000       Uiso       1.00
      C754          C  0.8712549  0.9965952  0.9643117    0.00000       Uiso       1.00
      C755          C  0.8516465  0.0375358  0.9921930    0.00000       Uiso       1.00
      H769          H  0.8469462  0.0272461  0.9937192    0.00000       Uiso       1.00
      H770          H  0.8374327  0.0495154  0.9858299    0.00000       Uiso       1.00
      H771          H  0.8613054  0.0454156  0.0078121    0.00000       Uiso       1.00
      C756          C  0.8611868  0.9851575  0.9708184    0.00000       Uiso       1.00
      H772          H  0.8657072  0.9679912  0.9624962    0.00000       Uiso       1.00
      H773          H  0.8438527  0.9921488  0.9659954    0.00000       Uiso       1.00
      H774          H  0.8677895  0.9882769  0.9879774    0.00000       Uiso       1.00
      C757          C  0.9480598  0.8527495  0.9623750    0.00000       Uiso       1.00
      H775          H  0.9523804  0.8610720  0.9578515    0.00000       Uiso       1.00
      H776          H  0.9554949  0.8355903  0.9557704    0.00000       Uiso       1.00
      H777          H  0.9535844  0.8575713  0.9797090    0.00000       Uiso       1.00
      C758          C  0.9265904  0.8313766  0.9719247    0.00000       Uiso       1.00
      H778          H  0.9431081  0.8298432  0.9766220    0.00000       Uiso       1.00
      H779          H  0.9246641  0.8157595  0.9622656    0.00000       Uiso       1.00
      H780          H  0.9224630  0.8377427  0.9861400    0.00000       Uiso       1.00
      C759          C  0.8263998  0.8903435  0.7490513    0.00000       Uiso       1.00
      H781          H  0.8249187  0.9068760  0.7592488    0.00000       Uiso       1.00
      H782          H  0.8107061  0.8885585  0.7409591    0.00000       Uiso       1.00
      H783          H  0.8331029  0.8859546  0.7372429    0.00000       Uiso       1.00
      C760          C  0.8699388  0.8053080  0.7573262    0.00000       Uiso       1.00
      H784          H  0.8810148  0.7980842  0.7697593    0.00000       Uiso       1.00
      H785          H  0.8770240  0.7987228  0.7451385    0.00000       Uiso       1.00
      H786          H  0.8551450  0.8019122  0.7501355    0.00000       Uiso       1.00
      C761          C  0.8053054  0.8699217  0.9179094    0.00000       Uiso       1.00
      H787          H  0.7980811  0.8809941  0.9093242    0.00000       Uiso       1.00
      H788          H  0.7987163  0.8770085  0.9305944    0.00000       Uiso       1.00
      H789          H  0.8019150  0.8551248  0.9069139    0.00000       Uiso       1.00
      C762          C  0.8903315  0.8264164  0.9677126    0.00000       Uiso       1.00
      H790          H  0.9068646  0.8249376  0.9725724    0.00000       Uiso       1.00
      H791          H  0.8885507  0.8107207  0.9583316    0.00000       Uiso       1.00
      H792          H  0.8859342  0.8331261  0.9818311    0.00000       Uiso       1.00
      C763          C  0.9056840  0.0662634  0.9536678    0.00000       Uiso       1.00
      H793          H  0.9142702  0.0538298  0.9425964    0.00000       Uiso       1.00
      H794          H  0.9166796  0.0734538  0.9684656    0.00000       Uiso       1.00
      H795          H  0.8930010  0.0784514  0.9465811    0.00000       Uiso       1.00
      C764          C  0.8558693  0.0745339  0.9971628    0.00000       Uiso       1.00
      H796          H  0.8510116  0.0643326  0.9986343    0.00000       Uiso       1.00
      H797          H  0.8417491  0.0863417  0.9904566    0.00000       Uiso       1.00
      H798          H  0.8652484  0.0826267  0.0128605    0.00000       Uiso       1.00
      C765          C  0.0745264  0.8558998  0.9332464    0.00000       Uiso       1.00
      H799          H  0.0643238  0.8510486  0.9167161    0.00000       Uiso       1.00
      H800          H  0.0863341  0.8417756  0.9376328    0.00000       Uiso       1.00
      H801          H  0.0826196  0.8652829  0.9350268    0.00000       Uiso       1.00
      C766          C  0.0662711  0.9056699  0.0182893    0.00000       Uiso       1.00
      H802          H  0.0538423  0.9142517  0.0255190    0.00000       Uiso       1.00
      H803          H  0.0734618  0.9166673  0.0216813    0.00000       Uiso       1.00
      H804          H  0.0784602  0.8929806  0.0248714    0.00000       Uiso       1.00
      C767          C  0.8809580  0.8796808  0.8308384    0.00000       Uiso       1.00
      C768          C  0.8753566  0.9052660  0.8418922    0.00000       Uiso       1.00
      C769          C  0.8855402  0.9157134  0.8675891    0.00000       Uiso       1.00
      C770          C  0.8970006  0.8646546  0.8455412    0.00000       Uiso       1.00
      C771          C  0.9073114  0.8752673  0.8711196    0.00000       Uiso       1.00
      C772          C  0.9020051  0.9009935  0.8828729    0.00000       Uiso       1.00
      C773          C  0.8937804  0.9927542  0.9426253    0.00000       Uiso       1.00
      C774          C  0.9074755  0.9780496  0.9265899    0.00000       Uiso       1.00
      C775          C  0.9121293  0.9524700  0.9162769    0.00000       Uiso       1.00
      C776          C  0.8848391  0.9817008  0.9482166    0.00000       Uiso       1.00
      C777          C  0.8899066  0.9560028  0.9380337    0.00000       Uiso       1.00
      C778          C  0.9034570  0.9407172  0.9215789    0.00000       Uiso       1.00
      C779          C  0.9927488  0.8937893  0.9439130    0.00000       Uiso       1.00
      C780          C  0.9780448  0.9074730  0.9589391    0.00000       Uiso       1.00
      C781          C  0.9524656  0.9121261  0.9483242    0.00000       Uiso       1.00
      C782          C  0.9816963  0.8848588  0.9183258    0.00000       Uiso       1.00
      C783          C  0.9559982  0.8899263  0.9078766    0.00000       Uiso       1.00
      C784          C  0.9407134  0.9034626  0.9225965    0.00000       Uiso       1.00
      C785          C  0.8796768  0.8809560  0.9298017    0.00000       Uiso       1.00
      C786          C  0.9052637  0.8753580  0.9387360    0.00000       Uiso       1.00
      C787          C  0.9157111  0.8855422  0.9336679    0.00000       Uiso       1.00
      C788          C  0.8646499  0.8969997  0.9161148    0.00000       Uiso       1.00
      C789          C  0.8752622  0.9073151  0.9114628    0.00000       Uiso       1.00
      C790          C  0.9009895  0.9020069  0.9201272    0.00000       Uiso       1.00
      C791          C  0.9965912  0.8712860  0.9035419    0.00000       Uiso       1.00
      C792          C  0.0220186  0.8666797  0.9139637    0.00000       Uiso       1.00
      C793          C  0.9891950  0.9166221  0.9844058    0.00000       Uiso       1.00
      C794          C  0.0145586  0.9123305  0.9948144    0.00000       Uiso       1.00
      C795          C  0.8592504  0.9200524  0.8269992    0.00000       Uiso       1.00
      C796          C  0.8488482  0.9096345  0.8015710    0.00000       Uiso       1.00
      C797          C  0.9021694  0.8391866  0.8343896    0.00000       Uiso       1.00
      C798          C  0.8915061  0.8287808  0.8090227    0.00000       Uiso       1.00
      C799          C  0.8391827  0.9021645  0.9069644    0.00000       Uiso       1.00
      C800          C  0.8287786  0.8914964  0.9112578    0.00000       Uiso       1.00
      C801          C  0.9166337  0.9892006  0.9214315    0.00000       Uiso       1.00
      C802          C  0.9123383  0.0145660  0.9320961    0.00000       Uiso       1.00
      C803          C  0.8313562  0.9265954  0.7860504    0.00000       Uiso       1.00
      H805          H  0.8298183  0.9431141  0.7963361    0.00000       Uiso       1.00
      H806          H  0.8157420  0.9246632  0.7781693    0.00000       Uiso       1.00
      H807          H  0.8377177  0.9224721  0.7740718    0.00000       Uiso       1.00
      C804          C  0.8527307  0.9480656  0.8384384    0.00000       Uiso       1.00
      H808          H  0.8417366  0.9552616  0.8259750    0.00000       Uiso       1.00
      H809          H  0.8672104  0.9521573  0.8462727    0.00000       Uiso       1.00
      H810          H  0.8452230  0.9540589  0.8501240    0.00000       Uiso       1.00
      C805          C  0.9195194  0.8222308  0.8499263    0.00000       Uiso       1.00
      H811          H  0.9210204  0.8057176  0.8396410    0.00000       Uiso       1.00
      H812          H  0.9130766  0.8264109  0.8618628    0.00000       Uiso       1.00
      H813          H  0.9351642  0.8241038  0.8578594    0.00000       Uiso       1.00
      C806          C  0.8975958  0.8008099  0.7976702    0.00000       Uiso       1.00
      H814          H  0.9086183  0.7936147  0.8101311    0.00000       Uiso       1.00
      H815          H  0.9049417  0.7945603  0.7857794    0.00000       Uiso       1.00
      H816          H  0.8829841  0.7969997  0.7900971    0.00000       Uiso       1.00
      C807          C  0.9228820  0.0259118  0.9260152    0.00000       Uiso       1.00
      H817          H  0.9315197  0.0134477  0.9149972    0.00000       Uiso       1.00
      H818          H  0.9337294  0.0334832  0.9406303    0.00000       Uiso       1.00
      H819          H  0.9099016  0.0378033  0.9186670    0.00000       Uiso       1.00
      C808          C  0.9317878  0.9736581  0.9040921    0.00000       Uiso       1.00
      H820          H  0.9365225  0.9839404  0.9025954    0.00000       Uiso       1.00
      H821          H  0.9222073  0.9657242  0.8884448    0.00000       Uiso       1.00
      H822          H  0.9459821  0.9617218  0.9105396    0.00000       Uiso       1.00
      C809          C  0.8222312  0.9195181  0.8918253    0.00000       Uiso       1.00
      H823          H  0.8057172  0.9210181  0.8870940    0.00000       Uiso       1.00
      H824          H  0.8264153  0.9130782  0.8776293    0.00000       Uiso       1.00
      H825          H  0.8241038  0.9351626  0.9014134    0.00000       Uiso       1.00
      C810          C  0.8008077  0.8975847  0.9007229    0.00000       Uiso       1.00
      H826          H  0.7936156  0.9086064  0.8920891    0.00000       Uiso       1.00
      H827          H  0.7945536  0.9049312  0.9137069    0.00000       Uiso       1.00
      H828          H  0.7969990  0.8829724  0.8898739    0.00000       Uiso       1.00
      C811          C  0.9736535  0.9317635  0.0013566    0.00000       Uiso       1.00
      H829          H  0.9839361  0.9364930  0.0178704    0.00000       Uiso       1.00
      H830          H  0.9657215  0.9221779  0.9994837    0.00000       Uiso       1.00
      H831          H  0.9617159  0.9459612  0.9971741    0.00000       Uiso       1.00
      C812          C  0.0259021  0.9228655  0.0227848    0.00000       Uiso       1.00
      H832          H  0.0134371  0.9314979  0.0299747    0.00000       Uiso       1.00
      H833          H  0.0334735  0.9337162  0.0265954    0.00000       Uiso       1.00
      H834          H  0.0377935  0.9098817  0.0290392    0.00000       Uiso       1.00
      C813          C  0.9851523  0.8612322  0.8755289    0.00000       Uiso       1.00
      H835          H  0.9976161  0.8525668  0.8683333    0.00000       Uiso       1.00
      H836          H  0.9734669  0.8744323  0.8695356    0.00000       Uiso       1.00
      H837          H  0.9773173  0.8504955  0.8714371    0.00000       Uiso       1.00
      C814          C  0.0375338  0.8516904  0.8969977    0.00000       Uiso       1.00
      H838          H  0.0272451  0.8469956  0.8804807    0.00000       Uiso       1.00
      H839          H  0.0495140  0.8374735  0.9011201    0.00000       Uiso       1.00
      H840          H  0.0454131  0.8613554  0.8989260    0.00000       Uiso       1.00
      C815          C  0.9242473  0.8584879  0.8868636    0.00000       Uiso       1.00
      H841          H  0.9297311  0.8681212  0.9035305    0.00000       Uiso       1.00
      H842          H  0.9379436  0.8471826  0.8815469    0.00000       Uiso       1.00
      H843          H  0.9155145  0.8498091  0.8852257    0.00000       Uiso       1.00
      C816          C  0.8774323  0.9438261  0.8788229    0.00000       Uiso       1.00
      H844          H  0.8855234  0.9484363  0.8960291    0.00000       Uiso       1.00
      H845          H  0.8602351  0.9502662  0.8754442    0.00000       Uiso       1.00
      H846          H  0.8815369  0.9501181  0.8719257    0.00000       Uiso       1.00
      C817          C  0.9438233  0.8774493  0.9424492    0.00000       Uiso       1.00
      H847          H  0.9484301  0.8855404  0.9379405    0.00000       Uiso       1.00
      H848          H  0.9502732  0.8602517  0.9350806    0.00000       Uiso       1.00
      H849          H  0.9501088  0.8815635  0.9597436    0.00000       Uiso       1.00
      C818          C  0.8584812  0.9242678  0.8958930    0.00000       Uiso       1.00
      H850          H  0.8681145  0.9297525  0.8943437    0.00000       Uiso       1.00
      H851          H  0.8471840  0.9379629  0.9036120    0.00000       Uiso       1.00
      H852          H  0.8497931  0.9155461  0.8801187    0.00000       Uiso       1.00
      C819          C  0.9277282  0.9367238  0.8993520    0.00000       Uiso       1.00
      H853          H  0.9292753  0.9200571  0.8938659    0.00000       Uiso       1.00
      H854          H  0.9435022  0.9383606  0.9080925    0.00000       Uiso       1.00
      H855          H  0.9200298  0.9420401  0.8856567    0.00000       Uiso       1.00
      C820          C  0.8811224  0.9447700  0.9461297    0.00000       Uiso       1.00
      H856          H  0.8856297  0.9275634  0.9380406    0.00000       Uiso       1.00
      H857          H  0.8638278  0.9516665  0.9420155    0.00000       Uiso       1.00
      H858          H  0.8884907  0.9481509  0.9633273    0.00000       Uiso       1.00
      C821          C  0.9447664  0.8811609  0.8797640    0.00000       Uiso       1.00
      H859          H  0.9275597  0.8856658  0.8751518    0.00000       Uiso       1.00
      H860          H  0.9516633  0.8638675  0.8734693    0.00000       Uiso       1.00
      H861          H  0.9481473  0.8885421  0.8733284    0.00000       Uiso       1.00
      C822          C  0.9367160  0.9276998  0.9650975    0.00000       Uiso       1.00
      H862          H  0.9200501  0.9292476  0.9554597    0.00000       Uiso       1.00
      H863          H  0.9383503  0.9434748  0.9737841    0.00000       Uiso       1.00
      H864          H  0.9420317  0.9199844  0.9763960    0.00000       Uiso       1.00
        N1          N  0.7773606  0.4564410  0.5993667    0.00000       Uiso       1.00
      C823          C  0.8010592  0.4564497  0.6107389    0.00000       Uiso       1.00
      C824          C  0.8010587  0.4564490  0.6467726    0.00000       Uiso       1.00
        N2          N  0.8124313  0.4564403  0.6344374    0.00000       Uiso       1.00
        N3          N  0.7773601  0.4564403  0.6344374    0.00000       Uiso       1.00
      C825          C  0.7650251  0.4564497  0.6107389    0.00000       Uiso       1.00
        N4          N  0.4564398  0.7773604  0.6344379    0.00000       Uiso       1.00
      C826          C  0.4564485  0.8010591  0.6467729    0.00000       Uiso       1.00
      C827          C  0.4564492  0.8010600  0.6107395    0.00000       Uiso       1.00
        N5          N  0.4564398  0.8124319  0.6344379    0.00000       Uiso       1.00
        N6          N  0.4564404  0.7773613  0.5993673    0.00000       Uiso       1.00
      C828          C  0.4564492  0.7650257  0.6107395    0.00000       Uiso       1.00
      C829          C  0.3629351  0.3831251  0.5477548    0.00000       Uiso       1.00
      C830          C  0.3421024  0.3842274  0.5490102    0.00000       Uiso       1.00
      C831          C  0.3221074  0.4059951  0.5514501    0.00000       Uiso       1.00
      C832          C  0.3009202  0.4064305  0.5514392    0.00000       Uiso       1.00
      C833          C  0.2986978  0.3847498  0.5475974    0.00000       Uiso       1.00
      C834          C  0.3189414  0.3629340  0.5448048    0.00000       Uiso       1.00
      C835          C  0.3412857  0.3626001  0.5472065    0.00000       Uiso       1.00
        O1          O  0.3662780  0.4023137  0.5482810    0.00000       Uiso       1.00
      H865          H  0.3229983  0.4227077  0.5533895    0.00000       Uiso       1.00
      H866          H  0.2863380  0.4238613  0.5541983    0.00000       Uiso       1.00
      H867          H  0.3168407  0.3457732  0.5391778    0.00000       Uiso       1.00
      C836          C  0.3831283  0.2135251  0.5478193    0.00000       Uiso       1.00
      C837          C  0.3842334  0.2345172  0.5490893    0.00000       Uiso       1.00
      C838          C  0.4059961  0.2351849  0.5515171    0.00000       Uiso       1.00
      C839          C  0.4064252  0.2559257  0.5514989    0.00000       Uiso       1.00
      C840          C  0.3847423  0.2759845  0.5476558    0.00000       Uiso       1.00
      C841          C  0.3629346  0.2747659  0.5448873    0.00000       Uiso       1.00
      C842          C  0.3626088  0.2551588  0.5472992    0.00000       Uiso       1.00
        O2          O  0.4023108  0.1915103  0.5483124    0.00000       Uiso       1.00
      H868          H  0.4227076  0.2195190  0.5534403    0.00000       Uiso       1.00
      H869          H  0.4238531  0.2558322  0.5542459    0.00000       Uiso       1.00
      H870          H  0.3457692  0.2883928  0.5392621    0.00000       Uiso       1.00
      C843          C  0.2135118  0.3629654  0.5477971    0.00000       Uiso       1.00
      C844          C  0.2345075  0.3421484  0.5490860    0.00000       Uiso       1.00
      C845          C  0.2351787  0.3221647  0.5515479    0.00000       Uiso       1.00
      C846          C  0.2559278  0.3009832  0.5515603    0.00000       Uiso       1.00
      C847          C  0.2759923  0.2987580  0.5477205    0.00000       Uiso       1.00
      C848          C  0.2747715  0.3189990  0.5449191    0.00000       Uiso       1.00
      C849          C  0.2551491  0.3413350  0.5472895    0.00000       Uiso       1.00
        O3          O  0.1915079  0.3663011  0.5483190    0.00000       Uiso       1.00
      H871          H  0.2195038  0.3230598  0.5534739    0.00000       Uiso       1.00
      H872          H  0.2558376  0.2864045  0.5543252    0.00000       Uiso       1.00
      H873          H  0.2884116  0.3169002  0.5393007    0.00000       Uiso       1.00
      C850          C  0.2125145  0.3822243  0.5446226    0.00000       Uiso       1.00
      C851          C  0.2329234  0.3826847  0.5440410    0.00000       Uiso       1.00
      C852          C  0.2319966  0.4026843  0.5413831    0.00000       Uiso       1.00
      C853          C  0.2528950  0.4032055  0.5417752    0.00000       Uiso       1.00
      C854          C  0.2756121  0.3843487  0.5462503    0.00000       Uiso       1.00
      C855          C  0.2762467  0.3646358  0.5494353    0.00000       Uiso       1.00
      C856          C  0.2549348  0.3625361  0.5465864    0.00000       Uiso       1.00
        O4          O  0.1897820  0.4005787  0.5428129    0.00000       Uiso       1.00
      H874          H  0.2149380  0.4178975  0.5389044    0.00000       Uiso       1.00
      H875          H  0.2509828  0.4186207  0.5387409    0.00000       Uiso       1.00
      H876          H  0.2936480  0.3515147  0.5555838    0.00000       Uiso       1.00
      C857          C  0.3617004  0.2125426  0.5446868    0.00000       Uiso       1.00
      C858          C  0.3402569  0.2329601  0.5441279    0.00000       Uiso       1.00
      C859          C  0.3185373  0.2320538  0.5415227    0.00000       Uiso       1.00
      C860          C  0.2975185  0.2529592  0.5419311    0.00000       Uiso       1.00
      C861          C  0.2981272  0.2756657  0.5463652    0.00000       Uiso       1.00
      C862          C  0.3203813  0.2762790  0.5495009    0.00000       Uiso       1.00
      C863          C  0.3409337  0.2549595  0.5466398    0.00000       Uiso       1.00
        O5          O  0.3642695  0.1898134  0.5428845    0.00000       Uiso       1.00
      H877          H  0.3179023  0.2150018  0.5390614    0.00000       Uiso       1.00
      H878          H  0.2809905  0.2510551  0.5389335    0.00000       Uiso       1.00
      H879          H  0.3222612  0.2936703  0.5556316    0.00000       Uiso       1.00
      C864          C  0.3822111  0.3616938  0.5446199    0.00000       Uiso       1.00
      C865          C  0.3826678  0.3402490  0.5440448    0.00000       Uiso       1.00
      C866          C  0.4026917  0.3185341  0.5414467    0.00000       Uiso       1.00
      C867          C  0.4032187  0.2975149  0.5418586    0.00000       Uiso       1.00
      C868          C  0.3843307  0.2981170  0.5462800    0.00000       Uiso       1.00
      C869          C  0.3645873  0.3203669  0.5493982    0.00000       Uiso       1.00
      C870          C  0.3624972  0.3409220  0.5465429    0.00000       Uiso       1.00
        O6          O  0.4005840  0.3642645  0.5428444    0.00000       Uiso       1.00
      H880          H  0.4179190  0.3179086  0.5389950    0.00000       Uiso       1.00
      H881          H  0.4186636  0.2809941  0.5388767    0.00000       Uiso       1.00
      H882          H  0.3514374  0.3222425  0.5555166    0.00000       Uiso       1.00
        B1          B  0.3902537  0.3901211  0.5451568    0.00000       Uiso       1.00
        B2          B  0.3901207  0.1765941  0.5451753    0.00000       Uiso       1.00
        B3          B  0.1765808  0.3902563  0.5451524    0.00000       Uiso       1.00
      C871          C  0.3831314  0.3629422  0.1983155    0.00000       Uiso       1.00
      C872          C  0.3842341  0.3421100  0.1773303    0.00000       Uiso       1.00
      C873          C  0.4060019  0.3221151  0.1766631    0.00000       Uiso       1.00
      C874          C  0.4064378  0.3009282  0.1559226    0.00000       Uiso       1.00
      C875          C  0.3847573  0.2987061  0.1358616    0.00000       Uiso       1.00
      C876          C  0.3629414  0.3189497  0.1370820    0.00000       Uiso       1.00
      C877          C  0.3626072  0.3412936  0.1566903    0.00000       Uiso       1.00
        O7          O  0.4023196  0.3662847  0.2203205    0.00000       Uiso       1.00
      H883          H  0.4227142  0.3230056  0.1923269    0.00000       Uiso       1.00
      H884          H  0.4238685  0.2863461  0.1560121    0.00000       Uiso       1.00
      H885          H  0.3457808  0.3168491  0.1234477    0.00000       Uiso       1.00
      C878          C  0.2135344  0.3831383  0.0488472    0.00000       Uiso       1.00
      C879          C  0.2345261  0.3842430  0.0696740    0.00000       Uiso       1.00
      C880          C  0.2351934  0.4060054  0.0896764    0.00000       Uiso       1.00
      C881          C  0.2559338  0.4064341  0.1108640    0.00000       Uiso       1.00
      C882          C  0.2759925  0.3847511  0.1130830    0.00000       Uiso       1.00
      C883          C  0.2747742  0.3629437  0.0928254    0.00000       Uiso       1.00
      C884          C  0.2551675  0.3626184  0.0704810    0.00000       Uiso       1.00
        O8          O  0.1915196  0.4023209  0.0455219    0.00000       Uiso       1.00
      H886          H  0.2195275  0.4227169  0.0887987    0.00000       Uiso       1.00
      H887          H  0.2558400  0.4238617  0.1254510    0.00000       Uiso       1.00
      H888          H  0.2884009  0.3457782  0.0949120    0.00000       Uiso       1.00
      C885          C  0.3629750  0.2135222  0.0286936    0.00000       Uiso       1.00
      C886          C  0.3421580  0.2345179  0.0275834    0.00000       Uiso       1.00
      C887          C  0.3221748  0.2351896  0.0058096    0.00000       Uiso       1.00
      C888          C  0.3009934  0.2559387  0.0053647    0.00000       Uiso       1.00
      C889          C  0.2987677  0.2760028  0.0270434    0.00000       Uiso       1.00
      C890          C  0.3190081  0.2747815  0.0488644    0.00000       Uiso       1.00
      C891          C  0.3413442  0.2551591  0.0492077    0.00000       Uiso       1.00
        O9          O  0.3663112  0.1915187  0.0095039    0.00000       Uiso       1.00
      H889          H  0.3230704  0.2195155  0.9891047    0.00000       Uiso       1.00
      H890          H  0.2864152  0.2558493  0.9879319    0.00000       Uiso       1.00
      H891          H  0.3169089  0.2884211  0.0660236    0.00000       Uiso       1.00
      C892          C  0.3822334  0.2125245  0.0501293    0.00000       Uiso       1.00
      C893          C  0.3826934  0.2329330  0.0715797    0.00000       Uiso       1.00
      C894          C  0.4026926  0.2320056  0.0933099    0.00000       Uiso       1.00
      C895          C  0.4032133  0.2529037  0.1143370    0.00000       Uiso       1.00
      C896          C  0.3843566  0.2756208  0.1137222    0.00000       Uiso       1.00
      C897          C  0.3646442  0.2762559  0.0914595    0.00000       Uiso       1.00
      C898          C  0.3625449  0.2549444  0.0708971    0.00000       Uiso       1.00
       O10          O  0.4005879  0.1897920  0.0475608    0.00000       Uiso       1.00
      H892          H  0.4179056  0.2149470  0.0939432    0.00000       Uiso       1.00
      H893          H  0.4186282  0.2509911  0.1308740    0.00000       Uiso       1.00
      H894          H  0.3515232  0.2936574  0.0895914    0.00000       Uiso       1.00
      C899          C  0.2125521  0.3617107  0.0295697    0.00000       Uiso       1.00
      C900          C  0.2329696  0.3402672  0.0291025    0.00000       Uiso       1.00
      C901          C  0.2320637  0.3185480  0.0090822    0.00000       Uiso       1.00
      C902          C  0.2529691  0.2975292  0.0085603    0.00000       Uiso       1.00
      C903          C  0.2756753  0.2981376  0.0274412    0.00000       Uiso       1.00
      C904          C  0.2762883  0.3203914  0.0471725    0.00000       Uiso       1.00
      C905          C  0.2549686  0.3409436  0.0492664    0.00000       Uiso       1.00
       O11          O  0.1898233  0.3642802  0.0112123    0.00000       Uiso       1.00
      H895          H  0.2150121  0.3179136  0.9938574    0.00000       Uiso       1.00
      H896          H  0.2510654  0.2810019  0.9931269    0.00000       Uiso       1.00
      H897          H  0.2936794  0.3222712  0.0603130    0.00000       Uiso       1.00
      C906          C  0.3617000  0.3822181  0.1992951    0.00000       Uiso       1.00
      C907          C  0.3402556  0.3826752  0.1788826    0.00000       Uiso       1.00
      C908          C  0.3185407  0.4026990  0.1797896    0.00000       Uiso       1.00
      C909          C  0.2975218  0.4032265  0.1588859    0.00000       Uiso       1.00
      C910          C  0.2981245  0.3843390  0.1361792    0.00000       Uiso       1.00
      C911          C  0.3203744  0.3645957  0.1355674    0.00000       Uiso       1.00
      C912          C  0.3409291  0.3625050  0.1568872    0.00000       Uiso       1.00
       O12          O  0.3642703  0.4005905  0.2220138    0.00000       Uiso       1.00
      H898          H  0.3179147  0.4179260  0.1968427    0.00000       Uiso       1.00
      H899          H  0.2810010  0.4186713  0.1607918    0.00000       Uiso       1.00
      H900          H  0.3222505  0.3514462  0.1181752    0.00000       Uiso       1.00
        B4          B  0.3901266  0.3902601  0.2352275    0.00000       Uiso       1.00
        B5          B  0.1766038  0.3901312  0.0215531    0.00000       Uiso       1.00
        B6          B  0.3902660  0.1765914  0.0216984    0.00000       Uiso       1.00
        N7          N  0.8124253  0.7773542  0.9553515    0.00000       Uiso       1.00
      C913          C  0.8010527  0.8010530  0.9553426    0.00000       Uiso       1.00
      C914          C  0.7650184  0.8010533  0.9553426    0.00000       Uiso       1.00
        N8          N  0.7773539  0.8124256  0.9553515    0.00000       Uiso       1.00
        N9          N  0.7773538  0.7773544  0.9553515    0.00000       Uiso       1.00
      C915          C  0.8010527  0.7650189  0.9553426    0.00000       Uiso       1.00
      C916          C  0.8640366  0.3629255  0.0286665    0.00000       Uiso       1.00
      C917          C  0.8627813  0.3420929  0.0275642    0.00000       Uiso       1.00
      C918          C  0.8603418  0.3220984  0.0057969    0.00000       Uiso       1.00
      C919          C  0.8603526  0.3009111  0.0053614    0.00000       Uiso       1.00
      C920          C  0.8641940  0.2986882  0.0270418    0.00000       Uiso       1.00
      C921          C  0.8669863  0.3189313  0.0488572    0.00000       Uiso       1.00
      C922          C  0.8645846  0.3412757  0.0491911    0.00000       Uiso       1.00
       O13          O  0.8635108  0.3662688  0.0094782    0.00000       Uiso       1.00
      H901          H  0.8584028  0.3229900  0.9890852    0.00000       Uiso       1.00
      H902          H  0.8575940  0.2863298  0.9879315    0.00000       Uiso       1.00
      H903          H  0.8726131  0.3168302  0.0660178    0.00000       Uiso       1.00
      C923          C  0.8639688  0.3831154  0.1982631    0.00000       Uiso       1.00
      C924          C  0.8626992  0.3842209  0.1772714    0.00000       Uiso       1.00
      C925          C  0.8602715  0.4059837  0.1766037    0.00000       Uiso       1.00
      C926          C  0.8602899  0.4064132  0.1558633    0.00000       Uiso       1.00
      C927          C  0.8641337  0.3847307  0.1358050    0.00000       Uiso       1.00
      C928          C  0.8669021  0.3629228  0.1370236    0.00000       Uiso       1.00
      C929          C  0.8644898  0.3625967  0.1566303    0.00000       Uiso       1.00
       O14          O  0.8634754  0.4022974  0.2202775    0.00000       Uiso       1.00
      H904          H  0.8583479  0.4226949  0.1922693    0.00000       Uiso       1.00
      H905          H  0.8575429  0.4238411  0.1559568    0.00000       Uiso       1.00
      H906          H  0.8725277  0.3457576  0.1233971    0.00000       Uiso       1.00
      C930          C  0.8639940  0.2135018  0.0488258    0.00000       Uiso       1.00
      C931          C  0.8627047  0.2344971  0.0696424    0.00000       Uiso       1.00
      C932          C  0.8602424  0.2351680  0.0896256    0.00000       Uiso       1.00
      C933          C  0.8602296  0.2559166  0.1108067    0.00000       Uiso       1.00
      C934          C  0.8640693  0.2759810  0.1130319    0.00000       Uiso       1.00
      C935          C  0.8668712  0.2747606  0.0927914    0.00000       Uiso       1.00
      C936          C  0.8645011  0.2551387  0.0704558    0.00000       Uiso       1.00
       O15          O  0.8634721  0.1914980  0.0454901    0.00000       Uiso       1.00
      H907          H  0.8583164  0.2194931  0.0887305    0.00000       Uiso       1.00
      H908          H  0.8574643  0.2558262  0.1253851    0.00000       Uiso       1.00
      H909          H  0.8724896  0.2884005  0.0948903    0.00000       Uiso       1.00
      C937          C  0.8671689  0.2125049  0.0295673    0.00000       Uiso       1.00
      C938          C  0.8677506  0.2329138  0.0291070    0.00000       Uiso       1.00
      C939          C  0.8704088  0.2319873  0.0091077    0.00000       Uiso       1.00
      C940          C  0.8700167  0.2528858  0.0085866    0.00000       Uiso       1.00
      C941          C  0.8655412  0.2756025  0.0274429    0.00000       Uiso       1.00
      C942          C  0.8623558  0.2762368  0.0471554    0.00000       Uiso       1.00
      C943          C  0.8652047  0.2549247  0.0492551    0.00000       Uiso       1.00
       O16          O  0.8689790  0.1897726  0.0112133    0.00000       Uiso       1.00
      H910          H  0.8728881  0.2149294  0.9938956    0.00000       Uiso       1.00
      H911          H  0.8730516  0.2509742  0.9931723    0.00000       Uiso       1.00
      H912          H  0.8562070  0.2936380  0.0602761    0.00000       Uiso       1.00
      C944          C  0.8671014  0.3616874  0.1992457    0.00000       Uiso       1.00
      C945          C  0.8676608  0.3402443  0.1788287    0.00000       Uiso       1.00
      C946          C  0.8702660  0.3185246  0.1797349    0.00000       Uiso       1.00
      C947          C  0.8698579  0.2975062  0.1588300    0.00000       Uiso       1.00
      C948          C  0.8654242  0.2981155  0.1361238    0.00000       Uiso       1.00
      C949          C  0.8622884  0.3203696  0.1355104    0.00000       Uiso       1.00
      C950          C  0.8651492  0.3409215  0.1568296    0.00000       Uiso       1.00
       O17          O  0.8689033  0.3642561  0.2219745    0.00000       Uiso       1.00
      H913          H  0.8727270  0.3178892  0.1967866    0.00000       Uiso       1.00
      H914          H  0.8728557  0.2809782  0.1607341    0.00000       Uiso       1.00
      H915          H  0.8561580  0.3222500  0.1181194    0.00000       Uiso       1.00
      C951          C  0.8671712  0.3822010  0.0500974    0.00000       Uiso       1.00
      C952          C  0.8677459  0.3826573  0.0715418    0.00000       Uiso       1.00
      C953          C  0.8703436  0.4026807  0.0932563    0.00000       Uiso       1.00
      C954          C  0.8699313  0.4032073  0.1142752    0.00000       Uiso       1.00
      C955          C  0.8655099  0.3843195  0.1136729    0.00000       Uiso       1.00
      C956          C  0.8623920  0.3645765  0.0914234    0.00000       Uiso       1.00
      C957          C  0.8652478  0.3624867  0.0708688    0.00000       Uiso       1.00
       O18          O  0.8689469  0.4005739  0.0475268    0.00000       Uiso       1.00
      H916          H  0.8727953  0.4179080  0.0938819    0.00000       Uiso       1.00
      H917          H  0.8729129  0.4186518  0.1307956    0.00000       Uiso       1.00
      H918          H  0.8562735  0.3514268  0.0895477    0.00000       Uiso       1.00
        B7          B  0.8666349  0.3902442  0.0216707    0.00000       Uiso       1.00
        B8          B  0.8666122  0.3901070  0.2351935    0.00000       Uiso       1.00
        B9          B  0.8666393  0.1765713  0.0215354    0.00000       Uiso       1.00
       N10          N  0.7773604  0.7773612  0.5993667    0.00000       Uiso       1.00
      C958          C  0.7650248  0.8010598  0.6107389    0.00000       Uiso       1.00
      C959          C  0.8010582  0.8010594  0.6467726    0.00000       Uiso       1.00
       N11          N  0.7773597  0.8124319  0.6344375    0.00000       Uiso       1.00
       N12          N  0.8124310  0.7773607  0.6344375    0.00000       Uiso       1.00
      C960          C  0.8010590  0.7650257  0.6107391    0.00000       Uiso       1.00
      C961          C  0.3629416  0.8640537  0.1983155    0.00000       Uiso       1.00
      C962          C  0.3421094  0.8627986  0.1773303    0.00000       Uiso       1.00
      C963          C  0.3221145  0.8603587  0.1766632    0.00000       Uiso       1.00
      C964          C  0.3009276  0.8603700  0.1559226    0.00000       Uiso       1.00
      C965          C  0.2987056  0.8642122  0.1358616    0.00000       Uiso       1.00
      C966          C  0.3189491  0.8670049  0.1370820    0.00000       Uiso       1.00
      C967          C  0.3412930  0.8646027  0.1566903    0.00000       Uiso       1.00
       O19          O  0.3662841  0.8635270  0.2203205    0.00000       Uiso       1.00
      H919          H  0.3230051  0.8584190  0.1923269    0.00000       Uiso       1.00
      H920          H  0.2863456  0.8576108  0.1560122    0.00000       Uiso       1.00
      H921          H  0.3168485  0.8726323  0.1234477    0.00000       Uiso       1.00
      C968          C  0.3831377  0.8639921  0.0488473    0.00000       Uiso       1.00
      C969          C  0.3842424  0.8627217  0.0696741    0.00000       Uiso       1.00
      C970          C  0.4060049  0.8602934  0.0896764    0.00000       Uiso       1.00
      C971          C  0.4064335  0.8603112  0.1108640    0.00000       Uiso       1.00
      C972          C  0.3847506  0.8641543  0.1130830    0.00000       Uiso       1.00
      C973          C  0.3629431  0.8669233  0.0928254    0.00000       Uiso       1.00
      C974          C  0.3626178  0.8645118  0.0704811    0.00000       Uiso       1.00
       O20          O  0.4023203  0.8634990  0.0455219    0.00000       Uiso       1.00
      H922          H  0.4227163  0.8583702  0.0887987    0.00000       Uiso       1.00
      H923          H  0.4238612  0.8575638  0.1254510    0.00000       Uiso       1.00
      H924          H  0.3457776  0.8725485  0.0949120    0.00000       Uiso       1.00
      C975          C  0.2135216  0.8640147  0.0286937    0.00000       Uiso       1.00
      C976          C  0.2345174  0.8627258  0.0275835    0.00000       Uiso       1.00
      C977          C  0.2351891  0.8602642  0.0058096    0.00000       Uiso       1.00
      C978          C  0.2559381  0.8602518  0.0053648    0.00000       Uiso       1.00
      C979          C  0.2760022  0.8640913  0.0270434    0.00000       Uiso       1.00
      C980          C  0.2747809  0.8668923  0.0488645    0.00000       Uiso       1.00
      C981          C  0.2551586  0.8645219  0.0492077    0.00000       Uiso       1.00
       O21          O  0.1915181  0.8634931  0.0095040    0.00000       Uiso       1.00
      H925          H  0.2195147  0.8583390  0.9891047    0.00000       Uiso       1.00
      H926          H  0.2558485  0.8574877  0.9879320    0.00000       Uiso       1.00
      H927          H  0.2884205  0.8725104  0.0660236    0.00000       Uiso       1.00
      C982          C  0.2125239  0.8671888  0.0501293    0.00000       Uiso       1.00
      C983          C  0.2329324  0.8677700  0.0715797    0.00000       Uiso       1.00
      C984          C  0.2320050  0.8704274  0.0933099    0.00000       Uiso       1.00
      C985          C  0.2529031  0.8700349  0.1143370    0.00000       Uiso       1.00
      C986          C  0.2756203  0.8655598  0.1137222    0.00000       Uiso       1.00
      C987          C  0.2762553  0.8623753  0.0914596    0.00000       Uiso       1.00
      C988          C  0.2549438  0.8652245  0.0708972    0.00000       Uiso       1.00
       O22          O  0.1897914  0.8689985  0.0475608    0.00000       Uiso       1.00
      H928          H  0.2149465  0.8729063  0.0939432    0.00000       Uiso       1.00
      H929          H  0.2509905  0.8730690  0.1308740    0.00000       Uiso       1.00
      H930          H  0.2936569  0.8562266  0.0895914    0.00000       Uiso       1.00
      C989          C  0.3617101  0.8671250  0.0295697    0.00000       Uiso       1.00
      C990          C  0.3402666  0.8676839  0.0291025    0.00000       Uiso       1.00
      C991          C  0.3185474  0.8702895  0.0090822    0.00000       Uiso       1.00
      C992          C  0.2975286  0.8698812  0.0085603    0.00000       Uiso       1.00
      C993          C  0.2981370  0.8654466  0.0274412    0.00000       Uiso       1.00
      C994          C  0.3203908  0.8623105  0.0471725    0.00000       Uiso       1.00
      C995          C  0.3409431  0.8651716  0.0492665    0.00000       Uiso       1.00
       O23          O  0.3642796  0.8689278  0.0112123    0.00000       Uiso       1.00
      H931          H  0.3179128  0.8727517  0.9938574    0.00000       Uiso       1.00
      H932          H  0.2810011  0.8728796  0.9931269    0.00000       Uiso       1.00
      H933          H  0.3222706  0.8561794  0.0603130    0.00000       Uiso       1.00
      C996          C  0.3822175  0.8671886  0.1992951    0.00000       Uiso       1.00
      C997          C  0.3826746  0.8677641  0.1788826    0.00000       Uiso       1.00
      C998          C  0.4026985  0.8703622  0.1797896    0.00000       Uiso       1.00
      C999          C  0.4032260  0.8699507  0.1588859    0.00000       Uiso       1.00
     C1000          C  0.3843385  0.8655297  0.1361792    0.00000       Uiso       1.00
     C1001          C  0.3645951  0.8624114  0.1355675    0.00000       Uiso       1.00
     C1002          C  0.3625045  0.8652664  0.1568873    0.00000       Uiso       1.00
       O24          O  0.4005900  0.8689637  0.2220138    0.00000       Uiso       1.00
      H934          H  0.4179254  0.8728136  0.1968427    0.00000       Uiso       1.00
      H935          H  0.4186707  0.8729326  0.1607918    0.00000       Uiso       1.00
      H936          H  0.3514456  0.8562933  0.1181753    0.00000       Uiso       1.00
       B10          B  0.3902595  0.8666510  0.2352275    0.00000       Uiso       1.00
       B11          B  0.3901307  0.8666366  0.0215531    0.00000       Uiso       1.00
       B12          B  0.1765908  0.8666595  0.0216984    0.00000       Uiso       1.00
