data_86
_audit_creation_date              0000-00-00
_audit_creation_method            'LanYouShi'
_symmetry_space_group_name_H-M    'P1'
_cell_length_a                    66.9181976
_cell_length_b                    66.9181976
_cell_length_c                    66.9181976
_cell_angle_alpha                 119.9999008
_cell_angle_beta                  119.9999008
_cell_angle_gamma                 60.0000000
loop_
_atom_site_label
_atom_site_type_symbol
_atom_site_fract_x
_atom_site_fract_y
_atom_site_fract_z
_atom_site_U_iso_or_equiv
_atom_site_adp_type
_atom_site_occupancy
        C1          C  0.4567258  0.7374611  0.5970950    0.00000       Uiso       1.00
        C2          C  0.4585235  0.7247517  0.5736358    0.00000       Uiso       1.00
        C3          C  0.4624525  0.6992682  0.5628600    0.00000       Uiso       1.00
        C4          C  0.4585234  0.7247517  0.6096424    0.00000       Uiso       1.00
        C5          C  0.4622954  0.6993504  0.5988922    0.00000       Uiso       1.00
        C6          C  0.4644829  0.6859418  0.5752748    0.00000       Uiso       1.00
        H1          H  0.3906338  0.4550765  0.5356494    0.00000       Uiso       1.00
        H2          H  0.4570368  0.7348424  0.6287664    0.00000       Uiso       1.00
        C7          C  0.4029090  0.4029092  0.2625429    0.00000       Uiso       1.00
        C8          C  0.3903615  0.4263685  0.2752524    0.00000       Uiso       1.00
        C9          C  0.4011110  0.4372479  0.3006536    0.00000       Uiso       1.00
       C10          C  0.4263682  0.3903618  0.2752524    0.00000       Uiso       1.00
       C11          C  0.4371438  0.4011406  0.3007360    0.00000       Uiso       1.00
       C12          C  0.4247275  0.4248510  0.3140612    0.00000       Uiso       1.00
        H3          H  0.4643462  0.6899367  0.5449238    0.00000       Uiso       1.00
        H4          H  0.3712375  0.4368884  0.2651617    0.00000       Uiso       1.00
       C13          C  0.4029087  0.4029089  0.5432777    0.00000       Uiso       1.00
       C14          C  0.4263680  0.3903615  0.5414801    0.00000       Uiso       1.00
       C15          C  0.4372462  0.4011097  0.5377049    0.00000       Uiso       1.00
       C16          C  0.3903613  0.4263682  0.5414801    0.00000       Uiso       1.00
       C17          C  0.4011381  0.4371423  0.5375470    0.00000       Uiso       1.00
       C18          C  0.4248484  0.4247250  0.5355137    0.00000       Uiso       1.00
        H5          H  0.6899363  0.4643485  0.6093629    0.00000       Uiso       1.00
        H6          H  0.4368879  0.3712375  0.5429667    0.00000       Uiso       1.00
       C19          C  0.7374609  0.4567262  0.5970950    0.00000       Uiso       1.00
       C20          C  0.7247513  0.4585238  0.6096423    0.00000       Uiso       1.00
       C21          C  0.6992679  0.4624524  0.5988635    0.00000       Uiso       1.00
       C22          C  0.7247514  0.4585238  0.5736357    0.00000       Uiso       1.00
       C23          C  0.6993502  0.4622948  0.5627561    0.00000       Uiso       1.00
       C24          C  0.6859421  0.4644820  0.5751525    0.00000       Uiso       1.00
        H7          H  0.4550795  0.3906403  0.3100661    0.00000       Uiso       1.00
       C25          C  0.4999988  0.5000007  0.4999996    0.00000       Uiso       1.00
        H8          H  0.7348421  0.4570372  0.5631158    0.00000       Uiso       1.00
       Cl1         Cl  0.4562284  0.7403305  0.5573945    0.00000       Uiso       1.00
       Cl2         Cl  0.7403300  0.4562286  0.6391672    0.00000       Uiso       1.00
       Cl3         Cl  0.3608364  0.4426095  0.5437752    0.00000       Uiso       1.00
       Cl4         Cl  0.4426095  0.3608370  0.2596737    0.00000       Uiso       1.00
       Cl5         Cl  0.4637269  0.6846448  0.6154615    0.00000       Uiso       1.00
       Cl6         Cl  0.6846451  0.4637270  0.5329131    0.00000       Uiso       1.00
       Cl7         Cl  0.3845403  0.4670904  0.3153586    0.00000       Uiso       1.00
       Cl8         Cl  0.4670867  0.3845384  0.5362660    0.00000       Uiso       1.00
       C26          C  0.4689729  0.6584190  0.5638881    0.00000       Uiso       1.00
       C27          C  0.4596478  0.6470169  0.5382458    0.00000       Uiso       1.00
       C28          C  0.4639355  0.6214381  0.5276373    0.00000       Uiso       1.00
       C29          C  0.4827008  0.6432129  0.5786001    0.00000       Uiso       1.00
       C30          C  0.4869175  0.6176707  0.5682381    0.00000       Uiso       1.00
       C31          C  0.4775577  0.6067135  0.5426727    0.00000       Uiso       1.00
        H9          H  0.4905487  0.6511213  0.5981906    0.00000       Uiso       1.00
       H10          H  0.4487247  0.6580694  0.5264475    0.00000       Uiso       1.00
       C32          C  0.4361115  0.4364973  0.3415824    0.00000       Uiso       1.00
       C33          C  0.4213988  0.4526791  0.3567885    0.00000       Uiso       1.00
       C34          C  0.4317594  0.4636438  0.3823303    0.00000       Uiso       1.00
       C35          C  0.4617517  0.4315932  0.3529833    0.00000       Uiso       1.00
       C36          C  0.4723576  0.4422769  0.3785603    0.00000       Uiso       1.00
       C37          C  0.4573235  0.4584048  0.3932856    0.00000       Uiso       1.00
       H11          H  0.4735539  0.4196750  0.3419352    0.00000       Uiso       1.00
       H12          H  0.4018078  0.4565058  0.3488800    0.00000       Uiso       1.00
       C38          C  0.4364949  0.4361070  0.5310196    0.00000       Uiso       1.00
       C39          C  0.4526859  0.4213914  0.5172912    0.00000       Uiso       1.00
       C40          C  0.4636528  0.4317521  0.5130740    0.00000       Uiso       1.00
       C41          C  0.4315821  0.4617480  0.5403451    0.00000       Uiso       1.00
       C42          C  0.4422648  0.4723536  0.5360563    0.00000       Uiso       1.00
       C43          C  0.4584031  0.4573201  0.5224351    0.00000       Uiso       1.00
       H13          H  0.4196583  0.4735512  0.5512698    0.00000       Uiso       1.00
       H14          H  0.4565157  0.4017978  0.5094443    0.00000       Uiso       1.00
       C44          C  0.6584197  0.4689722  0.5635064    0.00000       Uiso       1.00
       C45          C  0.6470186  0.4596393  0.5684134    0.00000       Uiso       1.00
       C46          C  0.6214398  0.4639292  0.5577329    0.00000       Uiso       1.00
       C47          C  0.6432133  0.4827070  0.5473232    0.00000       Uiso       1.00
       C48          C  0.6176711  0.4869231  0.5363591    0.00000       Uiso       1.00
       C49          C  0.6067148  0.4775584  0.5416023    0.00000       Uiso       1.00
       H15          H  0.6511226  0.4905591  0.5434947    0.00000       Uiso       1.00
       H16          H  0.6580751  0.4487076  0.5803326    0.00000       Uiso       1.00
       C50          C  0.6102279  0.4548695  0.5629352    0.00000       Uiso       1.00
       C51          C  0.5847995  0.4594789  0.5525358    0.00000       Uiso       1.00
       C52          C  0.4978321  0.4370804  0.3897713    0.00000       Uiso       1.00
       C53          C  0.5082517  0.4474823  0.4151986    0.00000       Uiso       1.00
       H17          H  0.5097682  0.4247843  0.3788581    0.00000       Uiso       1.00
       H18          H  0.5279636  0.4429035  0.4232471    0.00000       Uiso       1.00
       H19          H  0.6211445  0.4443178  0.5752321    0.00000       Uiso       1.00
       H20          H  0.5767468  0.4523999  0.5571156    0.00000       Uiso       1.00
       C54          C  0.4819922  0.5809579  0.5321155    0.00000       Uiso       1.00
       C55          C  0.4730620  0.5699040  0.5065301    0.00000       Uiso       1.00
       C56          C  0.4781274  0.5442066  0.4960823    0.00000       Uiso       1.00
       C57          C  0.4956782  0.5662549  0.5471414    0.00000       Uiso       1.00
       C58          C  0.5003327  0.5406761  0.5365282    0.00000       Uiso       1.00
       C59          C  0.4916658  0.5289226  0.5108019    0.00000       Uiso       1.00
       H21          H  0.4516641  0.5074265  0.4704039    0.00000       Uiso       1.00
       H22          H  0.4680541  0.5236274  0.5280140    0.00000       Uiso       1.00
       C60          C  0.4678812  0.4691691  0.4190401    0.00000       Uiso       1.00
       C61          C  0.4528556  0.4852048  0.4337450    0.00000       Uiso       1.00
       C62          C  0.4634686  0.4955179  0.4593247    0.00000       Uiso       1.00
       C63          C  0.4934672  0.4635776  0.4300934    0.00000       Uiso       1.00
       C64          C  0.5039148  0.4737608  0.4557916    0.00000       Uiso       1.00
       C65          C  0.4891955  0.4902158  0.4710774    0.00000       Uiso       1.00
       H23          H  0.4719782  0.5363309  0.4763733    0.00000       Uiso       1.00
       H24          H  0.5296011  0.5112872  0.4925521    0.00000       Uiso       1.00
       C66          C  0.4691654  0.4678811  0.5180048    0.00000       Uiso       1.00
       C67          C  0.4852113  0.4528549  0.5043209    0.00000       Uiso       1.00
       C68          C  0.4955228  0.4634700  0.4996679    0.00000       Uiso       1.00
       C69          C  0.4635616  0.4934689  0.5269358    0.00000       Uiso       1.00
       C70          C  0.4737431  0.5039183  0.5218685    0.00000       Uiso       1.00
       C71          C  0.4902112  0.4891982  0.5083319    0.00000       Uiso       1.00
       H25          H  0.5363260  0.4719698  0.5319260    0.00000       Uiso       1.00
       H26          H  0.5112996  0.5295986  0.5483337    0.00000       Uiso       1.00
       C72          C  0.5809595  0.4819928  0.5308384    0.00000       Uiso       1.00
       C73          C  0.5699047  0.4730583  0.5364361    0.00000       Uiso       1.00
       C74          C  0.5442051  0.4781266  0.5262522    0.00000       Uiso       1.00
       C75          C  0.5662562  0.4956799  0.5147950    0.00000       Uiso       1.00
       C76          C  0.5406765  0.5003321  0.5044797    0.00000       Uiso       1.00
       C77          C  0.5289215  0.4916674  0.5097877    0.00000       Uiso       1.00
       H27          H  0.5074483  0.4516678  0.4887098    0.00000       Uiso       1.00
       H28          H  0.5236249  0.4680845  0.4636668    0.00000       Uiso       1.00
       C78          C  0.4474557  0.5082531  0.5405088    0.00000       Uiso       1.00
       C79          C  0.4370561  0.4978310  0.5451150    0.00000       Uiso       1.00
       C80          C  0.4903784  0.4273877  0.4951713    0.00000       Uiso       1.00
       C81          C  0.4797145  0.4169789  0.4994627    0.00000       Uiso       1.00
       C82          C  0.4594890  0.5847974  0.4917440    0.00000       Uiso       1.00
       C83          C  0.4548814  0.6102260  0.5021624    0.00000       Uiso       1.00
       C84          C  0.5048259  0.5774067  0.5726096    0.00000       Uiso       1.00
       C85          C  0.5005288  0.6027740  0.5830159    0.00000       Uiso       1.00
       C86          C  0.5774083  0.5048306  0.5096303    0.00000       Uiso       1.00
       C87          C  0.6027737  0.5005370  0.5202983    0.00000       Uiso       1.00
       C88          C  0.4273882  0.4903633  0.4225942    0.00000       Uiso       1.00
       C89          C  0.4169826  0.4796985  0.3972283    0.00000       Uiso       1.00
       H29          H  0.4154574  0.5025678  0.4335339    0.00000       Uiso       1.00
       H30          H  0.3973064  0.4839763  0.3892470    0.00000       Uiso       1.00
       H31          H  0.4839995  0.3973016  0.4920509    0.00000       Uiso       1.00
       H32          H  0.5025902  0.4154565  0.4845137    0.00000       Uiso       1.00
       H33          H  0.4428677  0.5279670  0.5475844    0.00000       Uiso       1.00
       H34          H  0.4247515  0.5097660  0.5556595    0.00000       Uiso       1.00
       H35          H  0.5079355  0.6107603  0.6026926    0.00000       Uiso       1.00
       H36          H  0.5154838  0.5664710  0.5845437    0.00000       Uiso       1.00
       H37          H  0.4524143  0.5767483  0.4720328    0.00000       Uiso       1.00
       H38          H  0.4443370  0.6211446  0.4902310    0.00000       Uiso       1.00
       H39          H  0.6107560  0.5079476  0.5160159    0.00000       Uiso       1.00
       H40          H  0.5664700  0.5154864  0.4974164    0.00000       Uiso       1.00
       C90          C  0.8147062  0.7374607  0.9550754    0.00000       Uiso       1.00
       C91          C  0.8021588  0.7247512  0.9532777    0.00000       Uiso       1.00
       C92          C  0.8129375  0.6992676  0.9493487    0.00000       Uiso       1.00
       C93          C  0.8381655  0.7247512  0.9532777    0.00000       Uiso       1.00
       C94          C  0.8490447  0.6993499  0.9495058    0.00000       Uiso       1.00
       C95          C  0.8366484  0.6859413  0.9473183    0.00000       Uiso       1.00
       H41          H  0.1017372  0.4550758  0.0211671    0.00000       Uiso       1.00
       H42          H  0.8486854  0.7348419  0.9547644    0.00000       Uiso       1.00
       C96          C  0.8685236  0.4029080  0.0088924    0.00000       Uiso       1.00
       C97          C  0.8703213  0.4263673  0.0214398    0.00000       Uiso       1.00
       C98          C  0.8740934  0.4372468  0.0106902    0.00000       Uiso       1.00
       C99          C  0.8703211  0.3903607  0.9854334    0.00000       Uiso       1.00
      C100          C  0.8742504  0.4011396  0.9746578    0.00000       Uiso       1.00
      C101          C  0.8762814  0.4248500  0.9870741    0.00000       Uiso       1.00
       H43          H  0.8024393  0.6899361  0.9474551    0.00000       Uiso       1.00
       H44          H  0.8688346  0.4368871  0.0405638    0.00000       Uiso       1.00
      C102          C  0.1492582  0.4029082  0.0088922    0.00000       Uiso       1.00
      C103          C  0.1365486  0.3903609  0.9854332    0.00000       Uiso       1.00
      C104          C  0.1111470  0.4011091  0.9745551    0.00000       Uiso       1.00
      C105          C  0.1365487  0.4263675  0.0214396    0.00000       Uiso       1.00
      C106          C  0.1110647  0.4371415  0.0106628    0.00000       Uiso       1.00
      C107          C  0.0977382  0.4247244  0.9869528    0.00000       Uiso       1.00
       H45          H  0.8668767  0.4643483  0.7218652    0.00000       Uiso       1.00
       H46          H  0.1466394  0.3712369  0.9749134    0.00000       Uiso       1.00
      C108          C  0.8147067  0.4567260  0.6743408    0.00000       Uiso       1.00
      C109          C  0.8381659  0.4585237  0.6870502    0.00000       Uiso       1.00
      C110          C  0.8489419  0.4624523  0.7125337    0.00000       Uiso       1.00
      C111          C  0.8021592  0.4585236  0.6870502    0.00000       Uiso       1.00
      C112          C  0.8129097  0.4622946  0.7124514    0.00000       Uiso       1.00
      C113          C  0.8365269  0.4644819  0.7258595    0.00000       Uiso       1.00
       H47          H  0.8761451  0.3906393  0.9567221    0.00000       Uiso       1.00
      C114          C  0.9117986  0.5000001  0.9118026    0.00000       Uiso       1.00
       H48          H  0.7830352  0.4570371  0.6769595    0.00000       Uiso       1.00
       Cl9         Cl  0.7726339  0.7403299  0.9555728    0.00000       Uiso       1.00
      Cl10         Cl  0.8544072  0.4562286  0.6714715    0.00000       Uiso       1.00
      Cl11         Cl  0.1521274  0.4426087  0.0509644    0.00000       Uiso       1.00
      Cl12         Cl  0.8680260  0.3608359  0.9691922    0.00000       Uiso       1.00
      Cl13         Cl  0.8788880  0.6846443  0.9480743    0.00000       Uiso       1.00
      Cl14         Cl  0.7963398  0.4637267  0.7271566    0.00000       Uiso       1.00
      Cl15         Cl  0.8755267  0.4670893  0.0272610    0.00000       Uiso       1.00
      Cl16         Cl  0.0964390  0.3845379  0.9447146    0.00000       Uiso       1.00
      C115          C  0.8482944  0.6584185  0.9428283    0.00000       Uiso       1.00
      C116          C  0.8433794  0.6470163  0.9521534    0.00000       Uiso       1.00
      C117          C  0.8540620  0.6214375  0.9478658    0.00000       Uiso       1.00
      C118          C  0.8644847  0.6432124  0.9291005    0.00000       Uiso       1.00
      C119          C  0.8754483  0.6176701  0.9248838    0.00000       Uiso       1.00
      C120          C  0.8701997  0.6067129  0.9342436    0.00000       Uiso       1.00
       H49          H  0.8683189  0.6511209  0.9212525    0.00000       Uiso       1.00
       H50          H  0.8314517  0.6580687  0.9630765    0.00000       Uiso       1.00
      C121          C  0.8807722  0.4364964  0.9756901    0.00000       Uiso       1.00
      C122          C  0.8945091  0.4526782  0.9904027    0.00000       Uiso       1.00
      C123          C  0.8987256  0.4636430  0.9800420    0.00000       Uiso       1.00
      C124          C  0.8714370  0.4315923  0.9500499    0.00000       Uiso       1.00
      C125          C  0.8757244  0.4422761  0.9394439    0.00000       Uiso       1.00
      C126          C  0.8893558  0.4584040  0.9544780    0.00000       Uiso       1.00
       H51          H  0.8605050  0.4196741  0.9382477    0.00000       Uiso       1.00
       H52          H  0.9023650  0.4565048  0.0099934    0.00000       Uiso       1.00
      C127          C  0.0702156  0.4361064  0.9753064    0.00000       Uiso       1.00
      C128          C  0.0550119  0.4213908  0.9591154    0.00000       Uiso       1.00
      C129          C  0.0294672  0.4317515  0.9481485    0.00000       Uiso       1.00
      C130          C  0.0588130  0.4617474  0.9802191    0.00000       Uiso       1.00
      C131          C  0.0332360  0.4723530  0.9695365    0.00000       Uiso       1.00
      C132          C  0.0185100  0.4573195  0.9533982    0.00000       Uiso       1.00
       H53          H  0.0698582  0.4735506  0.9921429    0.00000       Uiso       1.00
       H54          H  0.0629290  0.4017971  0.9552857    0.00000       Uiso       1.00
      C133          C  0.8479131  0.4689720  0.7533818    0.00000       Uiso       1.00
      C134          C  0.8735542  0.4596390  0.7647830    0.00000       Uiso       1.00
      C135          C  0.8841625  0.4639289  0.7903617    0.00000       Uiso       1.00
      C136          C  0.8332016  0.4827067  0.7685882    0.00000       Uiso       1.00
      C137          C  0.8435634  0.4869227  0.7941304    0.00000       Uiso       1.00
      C138          C  0.8691276  0.4775580  0.8050867    0.00000       Uiso       1.00
       H55          H  0.8136117  0.4905587  0.7606789    0.00000       Uiso       1.00
       H56          H  0.8853486  0.4487073  0.7537264    0.00000       Uiso       1.00
      C139          C  0.9096364  0.4548692  0.8015736    0.00000       Uiso       1.00
      C140          C  0.9200560  0.4594785  0.8270020    0.00000       Uiso       1.00
      C141          C  0.8666574  0.4370796  0.9139694    0.00000       Uiso       1.00
      C142          C  0.8712633  0.4474816  0.9035498    0.00000       Uiso       1.00
       H57          H  0.8561043  0.4247835  0.9020333    0.00000       Uiso       1.00
       H58          H  0.8641786  0.4429028  0.8838379    0.00000       Uiso       1.00
       H59          H  0.9215683  0.4443176  0.7906570    0.00000       Uiso       1.00
       H60          H  0.9397673  0.4523995  0.8350546    0.00000       Uiso       1.00
      C143          C  0.8809638  0.5809574  0.9298091    0.00000       Uiso       1.00
      C144          C  0.8753626  0.5699034  0.9387394    0.00000       Uiso       1.00
      C145          C  0.8855467  0.5442060  0.9336740    0.00000       Uiso       1.00
      C146          C  0.8970066  0.5662544  0.9161231    0.00000       Uiso       1.00
      C147          C  0.9073180  0.5406755  0.9114687    0.00000       Uiso       1.00
      C148          C  0.9020119  0.5289220  0.9201356    0.00000       Uiso       1.00
       H61          H  0.9231117  0.5074258  0.9601372    0.00000       Uiso       1.00
       H62          H  0.9481308  0.5236268  0.9437472    0.00000       Uiso       1.00
      C149          C  0.8937884  0.4691683  0.9439203    0.00000       Uiso       1.00
      C150          C  0.9074830  0.4852040  0.9589458    0.00000       Uiso       1.00
      C151          C  0.9121367  0.4955172  0.9483328    0.00000       Uiso       1.00
      C152          C  0.8848472  0.4635769  0.9183343    0.00000       Uiso       1.00
      C153          C  0.8899145  0.4737602  0.9078867    0.00000       Uiso       1.00
      C154          C  0.9034646  0.4902152  0.9226059    0.00000       Uiso       1.00
       H63          H  0.8798627  0.5363302  0.9398232    0.00000       Uiso       1.00
       H64          H  0.8634624  0.5112866  0.8822004    0.00000       Uiso       1.00
      C155          C  0.9927568  0.4678805  0.9426360    0.00000       Uiso       1.00
      C156          C  0.9780531  0.4528543  0.9265901    0.00000       Uiso       1.00
      C157          C  0.9524737  0.4634694  0.9162786    0.00000       Uiso       1.00
      C158          C  0.9817037  0.4934683  0.9482397    0.00000       Uiso       1.00
      C159          C  0.9560055  0.5039177  0.9380582    0.00000       Uiso       1.00
      C160          C  0.9407210  0.4891976  0.9215902    0.00000       Uiso       1.00
       H65          H  0.9354286  0.4719693  0.8754754    0.00000       Uiso       1.00
       H66          H  0.9192339  0.5295981  0.9005018    0.00000       Uiso       1.00
      C161          C  0.8796846  0.4819924  0.8308420    0.00000       Uiso       1.00
      C162          C  0.9052716  0.4730579  0.8418967    0.00000       Uiso       1.00
      C163          C  0.9157190  0.4781261  0.8675963    0.00000       Uiso       1.00
      C164          C  0.8646575  0.4956795  0.8455453    0.00000       Uiso       1.00
      C165          C  0.8752697  0.5003315  0.8711250    0.00000       Uiso       1.00
      C166          C  0.9009972  0.4916669  0.8828799    0.00000       Uiso       1.00
       H67          H  0.9413922  0.4516672  0.9043531    0.00000       Uiso       1.00
       H68          H  0.8837560  0.4680839  0.8881766    0.00000       Uiso       1.00
      C167          C  0.9965984  0.5082526  0.9643456    0.00000       Uiso       1.00
      C168          C  0.0220259  0.4978304  0.9747452    0.00000       Uiso       1.00
      C169          C  0.9892038  0.4273871  0.9214231    0.00000       Uiso       1.00
      C170          C  0.0145675  0.4169783  0.9320869    0.00000       Uiso       1.00
      C171          C  0.8592560  0.5847967  0.9523123    0.00000       Uiso       1.00
      C172          C  0.8488533  0.6102254  0.9569198    0.00000       Uiso       1.00
      C173          C  0.9021752  0.5774063  0.9069753    0.00000       Uiso       1.00
      C174          C  0.8915114  0.6027735  0.9112725    0.00000       Uiso       1.00
      C175          C  0.8391900  0.5048302  0.8343932    0.00000       Uiso       1.00
      C176          C  0.8287861  0.5005366  0.8090277    0.00000       Uiso       1.00
      C177          C  0.9166412  0.4903625  0.9844132    0.00000       Uiso       1.00
      C178          C  0.9123457  0.4796977  0.9948189    0.00000       Uiso       1.00
       H69          H  0.9273071  0.5025670  0.9963440    0.00000       Uiso       1.00
       H70          H  0.9197630  0.4839753  0.0144947    0.00000       Uiso       1.00
       H71          H  0.0225480  0.3973009  0.9278019    0.00000       Uiso       1.00
       H72          H  0.9782655  0.4154559  0.9092112    0.00000       Uiso       1.00
       H73          H  0.9885480  0.5279664  0.9689335    0.00000       Uiso       1.00
       H74          H  0.0329399  0.5097655  0.9870497    0.00000       Uiso       1.00
       H75          H  0.8957952  0.6107599  0.9038658    0.00000       Uiso       1.00
       H76          H  0.9143872  0.5664706  0.8963175    0.00000       Uiso       1.00
       H77          H  0.8546687  0.5767475  0.9593871    0.00000       Uiso       1.00
       H78          H  0.8365479  0.6211439  0.9674644    0.00000       Uiso       1.00
       H79          H  0.8091109  0.5079472  0.8010455    0.00000       Uiso       1.00
       H80          H  0.8272586  0.5154858  0.8453314    0.00000       Uiso       1.00
      C179          C  0.8147067  0.7374612  0.5970950    0.00000       Uiso       1.00
      C180          C  0.8381659  0.7247517  0.6096424    0.00000       Uiso       1.00
      C181          C  0.8489418  0.6992682  0.5988636    0.00000       Uiso       1.00
      C182          C  0.8021593  0.7247518  0.5736357    0.00000       Uiso       1.00
      C183          C  0.8129095  0.6993505  0.5627565    0.00000       Uiso       1.00
      C184          C  0.8365269  0.6859419  0.5751528    0.00000       Uiso       1.00
       H81          H  0.8761528  0.4550770  0.3100642    0.00000       Uiso       1.00
       H82          H  0.7830353  0.7348425  0.5631158    0.00000       Uiso       1.00
      C185          C  0.1492590  0.4029089  0.5432778    0.00000       Uiso       1.00
      C186          C  0.1365495  0.4263681  0.5414801    0.00000       Uiso       1.00
      C187          C  0.1111484  0.4372477  0.5377080    0.00000       Uiso       1.00
      C188          C  0.1365495  0.3903615  0.5414801    0.00000       Uiso       1.00
      C189          C  0.1110660  0.4011403  0.5375509    0.00000       Uiso       1.00
      C190          C  0.0977407  0.4248508  0.5355199    0.00000       Uiso       1.00
       H83          H  0.8668779  0.6899366  0.6093618    0.00000       Uiso       1.00
       H84          H  0.1466403  0.4368881  0.5429667    0.00000       Uiso       1.00
      C191          C  0.8685246  0.4029094  0.2625432    0.00000       Uiso       1.00
      C192          C  0.8703222  0.3903620  0.2752527    0.00000       Uiso       1.00
      C193          C  0.8740973  0.4011101  0.3006543    0.00000       Uiso       1.00
      C194          C  0.8703221  0.4263687  0.2752527    0.00000       Uiso       1.00
      C195          C  0.8742552  0.4371427  0.3007367    0.00000       Uiso       1.00
      C196          C  0.8762885  0.4247254  0.3140630    0.00000       Uiso       1.00
       H85          H  0.8024389  0.4643486  0.5449249    0.00000       Uiso       1.00
       H86          H  0.8688356  0.3712379  0.2651620    0.00000       Uiso       1.00
      C197          C  0.8147068  0.4567262  0.5970950    0.00000       Uiso       1.00
      C198          C  0.8021594  0.4585238  0.5736357    0.00000       Uiso       1.00
      C199          C  0.8129382  0.4624525  0.5628597    0.00000       Uiso       1.00
      C200          C  0.8381660  0.4585238  0.6096423    0.00000       Uiso       1.00
      C201          C  0.8490457  0.4622948  0.5988919    0.00000       Uiso       1.00
      C202          C  0.8366494  0.4644821  0.5752746    0.00000       Uiso       1.00
       H87          H  0.1017358  0.3906400  0.5356562    0.00000       Uiso       1.00
      C203          C  0.9118024  0.5000007  0.5000028    0.00000       Uiso       1.00
       H88          H  0.8486859  0.4570371  0.6287664    0.00000       Uiso       1.00
      Cl17         Cl  0.8544071  0.7403305  0.6391672    0.00000       Uiso       1.00
      Cl18         Cl  0.7726346  0.4562287  0.5573945    0.00000       Uiso       1.00
      Cl19         Cl  0.8680270  0.4426099  0.2596740    0.00000       Uiso       1.00
      Cl20         Cl  0.1521283  0.3608366  0.5437753    0.00000       Uiso       1.00
      Cl21         Cl  0.7963403  0.6846449  0.5329133    0.00000       Uiso       1.00
      Cl22         Cl  0.8788887  0.4637268  0.6154618    0.00000       Uiso       1.00
      Cl23         Cl  0.0964433  0.4670902  0.5362747    0.00000       Uiso       1.00
      Cl24         Cl  0.8755362  0.3845388  0.3153624    0.00000       Uiso       1.00
      C204          C  0.8479137  0.6584191  0.5635068    0.00000       Uiso       1.00
      C205          C  0.8735560  0.6470169  0.5684218    0.00000       Uiso       1.00
      C206          C  0.8841645  0.6214382  0.5577393    0.00000       Uiso       1.00
      C207          C  0.8332017  0.6432130  0.5473166    0.00000       Uiso       1.00
      C208          C  0.8435638  0.6176708  0.5363531    0.00000       Uiso       1.00
      C209          C  0.8691292  0.6067135  0.5416015    0.00000       Uiso       1.00
       H89          H  0.8136112  0.6511214  0.5434825    0.00000       Uiso       1.00
       H90          H  0.8853543  0.6580694  0.5803495    0.00000       Uiso       1.00
      C210          C  0.0702195  0.4364971  0.5310291    0.00000       Uiso       1.00
      C211          C  0.0550134  0.4526790  0.5172921    0.00000       Uiso       1.00
      C212          C  0.0294716  0.4636437  0.5130757    0.00000       Uiso       1.00
      C213          C  0.0588186  0.4315930  0.5403643    0.00000       Uiso       1.00
      C214          C  0.0332415  0.4422767  0.5360768    0.00000       Uiso       1.00
      C215          C  0.0185162  0.4584047  0.5224455    0.00000       Uiso       1.00
       H91          H  0.0698666  0.4196747  0.5512963    0.00000       Uiso       1.00
       H92          H  0.0629219  0.4565057  0.5094364    0.00000       Uiso       1.00
      C216          C  0.8807827  0.4361074  0.3415856    0.00000       Uiso       1.00
      C217          C  0.8945110  0.4213917  0.3567893    0.00000       Uiso       1.00
      C218          C  0.8987281  0.4317524  0.3823340    0.00000       Uiso       1.00
      C219          C  0.8714570  0.4617484  0.3529882    0.00000       Uiso       1.00
      C220          C  0.8757457  0.4723539  0.3785652    0.00000       Uiso       1.00
      C221          C  0.8893670  0.4573203  0.3932912    0.00000       Uiso       1.00
       H93          H  0.8605323  0.4735516  0.3419430    0.00000       Uiso       1.00
       H94          H  0.9023579  0.4017981  0.3488723    0.00000       Uiso       1.00
      C222          C  0.8482954  0.4689722  0.5638884    0.00000       Uiso       1.00
      C223          C  0.8433884  0.4596394  0.5382474    0.00000       Uiso       1.00
      C224          C  0.8540689  0.4639293  0.5276390    0.00000       Uiso       1.00
      C225          C  0.8644786  0.4827070  0.5785999    0.00000       Uiso       1.00
      C226          C  0.8754428  0.4869231  0.5682381    0.00000       Uiso       1.00
      C227          C  0.8701996  0.4775584  0.5426739    0.00000       Uiso       1.00
       H95          H  0.8683071  0.4905590  0.5981898    0.00000       Uiso       1.00
       H96          H  0.8314692  0.4487077  0.5264530    0.00000       Uiso       1.00
      C228          C  0.8488666  0.4548696  0.5021651    0.00000       Uiso       1.00
      C229          C  0.8592661  0.4594790  0.4917455    0.00000       Uiso       1.00
      C230          C  0.0220305  0.4370802  0.5451439    0.00000       Uiso       1.00
      C231          C  0.9966034  0.4474822  0.5405381    0.00000       Uiso       1.00
       H97          H  0.0329437  0.4247841  0.5556971    0.00000       Uiso       1.00
       H98          H  0.9885550  0.4429034  0.5476227    0.00000       Uiso       1.00
       H99          H  0.8365698  0.4443180  0.4902333    0.00000       Uiso       1.00
      H100          H  0.8546864  0.4524001  0.4720343    0.00000       Uiso       1.00
      C232          C  0.8796864  0.5809580  0.5308375    0.00000       Uiso       1.00
      C233          C  0.9052718  0.5699040  0.5364388    0.00000       Uiso       1.00
      C234          C  0.9157197  0.5442067  0.5262546    0.00000       Uiso       1.00
      C235          C  0.8646605  0.5662550  0.5147947    0.00000       Uiso       1.00
      C236          C  0.8752737  0.5406761  0.5044834    0.00000       Uiso       1.00
      C237          C  0.9010001  0.5289226  0.5097895    0.00000       Uiso       1.00
      H101          H  0.9413981  0.5074265  0.4886896    0.00000       Uiso       1.00
      H102          H  0.8837880  0.5236276  0.4636705    0.00000       Uiso       1.00
      C238          C  0.9927620  0.4691690  0.5180130    0.00000       Uiso       1.00
      C239          C  0.9780571  0.4852048  0.5043183    0.00000       Uiso       1.00
      C240          C  0.9524773  0.4955179  0.4996646    0.00000       Uiso       1.00
      C241          C  0.9817086  0.4635775  0.5269542    0.00000       Uiso       1.00
      C242          C  0.9560105  0.4737608  0.5218869    0.00000       Uiso       1.00
      C243          C  0.9407247  0.4902158  0.5083368    0.00000       Uiso       1.00
      H103          H  0.9354286  0.5363309  0.5319386    0.00000       Uiso       1.00
      H104          H  0.9192498  0.5112871  0.5483390    0.00000       Uiso       1.00
      C244          C  0.8937972  0.4678813  0.4190447    0.00000       Uiso       1.00
      C245          C  0.9074812  0.4528551  0.4337484    0.00000       Uiso       1.00
      C246          C  0.9121341  0.4634701  0.4593278    0.00000       Uiso       1.00
      C247          C  0.8848662  0.4934691  0.4300977    0.00000       Uiso       1.00
      C248          C  0.8899335  0.5039185  0.4557959    0.00000       Uiso       1.00
      C249          C  0.9034701  0.4891983  0.4710805    0.00000       Uiso       1.00
      H105          H  0.8798760  0.4719699  0.4763728    0.00000       Uiso       1.00
      H106          H  0.8634682  0.5295987  0.4925674    0.00000       Uiso       1.00
      C250          C  0.8809635  0.4819929  0.5321169    0.00000       Uiso       1.00
      C251          C  0.8753658  0.4730584  0.5065298    0.00000       Uiso       1.00
      C252          C  0.8855498  0.4781266  0.4960825    0.00000       Uiso       1.00
      C253          C  0.8970069  0.4956799  0.5471439    0.00000       Uiso       1.00
      C254          C  0.9073223  0.5003321  0.5365318    0.00000       Uiso       1.00
      C255          C  0.9020143  0.4916675  0.5108043    0.00000       Uiso       1.00
      H107          H  0.9230922  0.4516679  0.4704092    0.00000       Uiso       1.00
      H108          H  0.9481353  0.4680844  0.5280454    0.00000       Uiso       1.00
      C256          C  0.8712932  0.5082534  0.4152031    0.00000       Uiso       1.00
      C257          C  0.8666871  0.4978313  0.3897752    0.00000       Uiso       1.00
      C258          C  0.9166308  0.4273878  0.4225978    0.00000       Uiso       1.00
      C259          C  0.9123394  0.4169791  0.3972337    0.00000       Uiso       1.00
      C260          C  0.9200578  0.5847973  0.5525452    0.00000       Uiso       1.00
      C261          C  0.9096395  0.6102260  0.5629479    0.00000       Uiso       1.00
      C262          C  0.8391923  0.5774069  0.5096262    0.00000       Uiso       1.00
      C263          C  0.8287860  0.6027741  0.5202899    0.00000       Uiso       1.00
      C264          C  0.9021715  0.5048306  0.5726114    0.00000       Uiso       1.00
      C265          C  0.8915036  0.5005370  0.5830153    0.00000       Uiso       1.00
      C266          C  0.9892079  0.4903632  0.4951601    0.00000       Uiso       1.00
      C267          C  0.0145735  0.4796984  0.4994556    0.00000       Uiso       1.00
      H109          H  0.9782681  0.5025678  0.4844941    0.00000       Uiso       1.00
      H110          H  0.0225548  0.4839762  0.4920385    0.00000       Uiso       1.00
      H111          H  0.9197513  0.3973018  0.3892533    0.00000       Uiso       1.00
      H112          H  0.9272884  0.4154566  0.4335360    0.00000       Uiso       1.00
      H113          H  0.8642176  0.5279672  0.4232534    0.00000       Uiso       1.00
      H114          H  0.8561426  0.5097664  0.3788613    0.00000       Uiso       1.00
      H115          H  0.8091092  0.6107605  0.5160062    0.00000       Uiso       1.00
      H116          H  0.8272582  0.5664712  0.4974141    0.00000       Uiso       1.00
      H117          H  0.9397692  0.5767481  0.5571325    0.00000       Uiso       1.00
      H118          H  0.9215708  0.6211445  0.5752533    0.00000       Uiso       1.00
      H119          H  0.8957860  0.5079475  0.6026906    0.00000       Uiso       1.00
      H120          H  0.9143854  0.5154862  0.5845428    0.00000       Uiso       1.00
      C268          C  0.7374608  0.8147072  0.5970950    0.00000       Uiso       1.00
      C269          C  0.7247514  0.8021598  0.5736358    0.00000       Uiso       1.00
      C270          C  0.6992678  0.8129386  0.5628600    0.00000       Uiso       1.00
      C271          C  0.7247513  0.8381664  0.6096424    0.00000       Uiso       1.00
      C272          C  0.6993500  0.8490457  0.5988922    0.00000       Uiso       1.00
      C273          C  0.6859415  0.8366494  0.5752748    0.00000       Uiso       1.00
      H121          H  0.4550764  0.1017382  0.5356494    0.00000       Uiso       1.00
      H122          H  0.7348420  0.8486863  0.6287664    0.00000       Uiso       1.00
      C274          C  0.4029089  0.8685249  0.2625430    0.00000       Uiso       1.00
      C275          C  0.4263681  0.8703225  0.2752524    0.00000       Uiso       1.00
      C276          C  0.4372476  0.8740946  0.3006536    0.00000       Uiso       1.00
      C277          C  0.3903615  0.8703225  0.2752524    0.00000       Uiso       1.00
      C278          C  0.4011402  0.8742517  0.3007360    0.00000       Uiso       1.00
      C279          C  0.4248507  0.8762827  0.3140613    0.00000       Uiso       1.00
      H123          H  0.6899363  0.8024403  0.5449238    0.00000       Uiso       1.00
      H124          H  0.4368881  0.8688359  0.2651617    0.00000       Uiso       1.00
      C280          C  0.4029087  0.1492592  0.5432777    0.00000       Uiso       1.00
      C281          C  0.3903613  0.1365497  0.5414801    0.00000       Uiso       1.00
      C282          C  0.4011095  0.1111481  0.5377049    0.00000       Uiso       1.00
      C283          C  0.4263680  0.1365497  0.5414801    0.00000       Uiso       1.00
      C284          C  0.4371421  0.1110657  0.5375471    0.00000       Uiso       1.00
      C285          C  0.4247249  0.0977393  0.5355137    0.00000       Uiso       1.00
      H125          H  0.4643482  0.8668773  0.6093630    0.00000       Uiso       1.00
      H126          H  0.3712373  0.1466405  0.5429667    0.00000       Uiso       1.00
      C286          C  0.4567258  0.8147072  0.5970950    0.00000       Uiso       1.00
      C287          C  0.4585234  0.8381664  0.6096424    0.00000       Uiso       1.00
      C288          C  0.4624521  0.8489425  0.5988635    0.00000       Uiso       1.00
      C289          C  0.4585235  0.8021598  0.5736358    0.00000       Uiso       1.00
      C290          C  0.4622945  0.8129103  0.5627561    0.00000       Uiso       1.00
      C291          C  0.4644817  0.8365275  0.5751525    0.00000       Uiso       1.00
      H127          H  0.3906399  0.8761464  0.3100662    0.00000       Uiso       1.00
      C292          C  0.5000004  0.9117996  0.4999996    0.00000       Uiso       1.00
      H128          H  0.4570369  0.7830357  0.5631159    0.00000       Uiso       1.00
      Cl25         Cl  0.7403301  0.7726349  0.5573946    0.00000       Uiso       1.00
      Cl26         Cl  0.4562283  0.8544076  0.6391672    0.00000       Uiso       1.00
      Cl27         Cl  0.4426093  0.1521284  0.5437752    0.00000       Uiso       1.00
      Cl28         Cl  0.3608366  0.8680274  0.2596737    0.00000       Uiso       1.00
      Cl29         Cl  0.6846444  0.8788889  0.6154615    0.00000       Uiso       1.00
      Cl30         Cl  0.4637266  0.7963404  0.5329131    0.00000       Uiso       1.00
      Cl31         Cl  0.4670901  0.8755280  0.3153587    0.00000       Uiso       1.00
      Cl32         Cl  0.3845383  0.0964400  0.5362661    0.00000       Uiso       1.00
      C293          C  0.6584187  0.8482954  0.5638881    0.00000       Uiso       1.00
      C294          C  0.6470166  0.8433805  0.5382459    0.00000       Uiso       1.00
      C295          C  0.6214378  0.8540631  0.5276374    0.00000       Uiso       1.00
      C296          C  0.6432126  0.8644856  0.5786001    0.00000       Uiso       1.00
      C297          C  0.6176703  0.8754492  0.5682381    0.00000       Uiso       1.00
      C298          C  0.6067131  0.8702008  0.5426727    0.00000       Uiso       1.00
      H129          H  0.6511210  0.8683197  0.5981906    0.00000       Uiso       1.00
      H130          H  0.6580690  0.8314527  0.5264475    0.00000       Uiso       1.00
      C299          C  0.4364969  0.8807735  0.3415824    0.00000       Uiso       1.00
      C300          C  0.4526788  0.8945104  0.3567885    0.00000       Uiso       1.00
      C301          C  0.4636435  0.8987268  0.3823303    0.00000       Uiso       1.00
      C302          C  0.4315929  0.8714383  0.3529833    0.00000       Uiso       1.00
      C303          C  0.4422766  0.8757257  0.3785604    0.00000       Uiso       1.00
      C304          C  0.4584045  0.8893571  0.3932856    0.00000       Uiso       1.00
      H131          H  0.4196746  0.8605062  0.3419352    0.00000       Uiso       1.00
      H132          H  0.4565054  0.9023662  0.3488800    0.00000       Uiso       1.00
      C305          C  0.4361069  0.0702167  0.5310196    0.00000       Uiso       1.00
      C306          C  0.4213912  0.0550130  0.5172912    0.00000       Uiso       1.00
      C307          C  0.4317519  0.0294683  0.5130740    0.00000       Uiso       1.00
      C308          C  0.4617479  0.0588141  0.5403451    0.00000       Uiso       1.00
      C309          C  0.4723535  0.0332371  0.5360564    0.00000       Uiso       1.00
      C310          C  0.4573199  0.0185111  0.5224351    0.00000       Uiso       1.00
      H133          H  0.4735511  0.0698593  0.5512698    0.00000       Uiso       1.00
      H134          H  0.4017976  0.0629301  0.5094443    0.00000       Uiso       1.00
      C311          C  0.4689719  0.8479137  0.5635065    0.00000       Uiso       1.00
      C312          C  0.4596389  0.8735548  0.5684134    0.00000       Uiso       1.00
      C313          C  0.4639288  0.8841633  0.5577330    0.00000       Uiso       1.00
      C314          C  0.4827066  0.8332023  0.5473232    0.00000       Uiso       1.00
      C315          C  0.4869228  0.8435642  0.5363591    0.00000       Uiso       1.00
      C316          C  0.4775580  0.8691284  0.5416023    0.00000       Uiso       1.00
      H135          H  0.4905587  0.8136124  0.5434948    0.00000       Uiso       1.00
      H136          H  0.4487073  0.8853492  0.5803327    0.00000       Uiso       1.00
      C317          C  0.4548692  0.9096371  0.5629353    0.00000       Uiso       1.00
      C318          C  0.4594785  0.9200568  0.5525359    0.00000       Uiso       1.00
      C319          C  0.4370800  0.8666586  0.3897713    0.00000       Uiso       1.00
      C320          C  0.4474820  0.8712644  0.4151987    0.00000       Uiso       1.00
      H137          H  0.4247839  0.8561054  0.3788581    0.00000       Uiso       1.00
      H138          H  0.4429032  0.8641796  0.4232471    0.00000       Uiso       1.00
      H139          H  0.4443175  0.9215689  0.5752321    0.00000       Uiso       1.00
      H140          H  0.4523995  0.9397681  0.5571156    0.00000       Uiso       1.00
      C321          C  0.5809576  0.8809648  0.5321156    0.00000       Uiso       1.00
      C322          C  0.5699036  0.8753636  0.5065301    0.00000       Uiso       1.00
      C323          C  0.5442063  0.8855478  0.4960823    0.00000       Uiso       1.00
      C324          C  0.5662546  0.8970076  0.5471414    0.00000       Uiso       1.00
      C325          C  0.5406757  0.9073189  0.5365282    0.00000       Uiso       1.00
      C326          C  0.5289222  0.9020129  0.5108019    0.00000       Uiso       1.00
      H141          H  0.5074261  0.9231129  0.4704039    0.00000       Uiso       1.00
      H142          H  0.5236270  0.9481319  0.5280140    0.00000       Uiso       1.00
      C327          C  0.4691687  0.8937895  0.4190401    0.00000       Uiso       1.00
      C328          C  0.4852045  0.9074842  0.4337450    0.00000       Uiso       1.00
      C329          C  0.4955176  0.9121378  0.4593247    0.00000       Uiso       1.00
      C330          C  0.4635773  0.8848482  0.4300934    0.00000       Uiso       1.00
      C331          C  0.4737605  0.8899155  0.4557916    0.00000       Uiso       1.00
      C332          C  0.4902154  0.9034656  0.4710774    0.00000       Uiso       1.00
      H143          H  0.5363306  0.8798638  0.4763734    0.00000       Uiso       1.00
      H144          H  0.5112867  0.8634633  0.4925521    0.00000       Uiso       1.00
      C333          C  0.4678808  0.9927578  0.5180049    0.00000       Uiso       1.00
      C334          C  0.4528545  0.9780541  0.5043209    0.00000       Uiso       1.00
      C335          C  0.4634696  0.9524747  0.4996680    0.00000       Uiso       1.00
      C336          C  0.4934685  0.9817048  0.5269358    0.00000       Uiso       1.00
      C337          C  0.5039180  0.9560065  0.5218685    0.00000       Uiso       1.00
      C338          C  0.4891979  0.9407219  0.5083319    0.00000       Uiso       1.00
      H145          H  0.4719694  0.9354295  0.5319260    0.00000       Uiso       1.00
      H146          H  0.5295982  0.9192349  0.5483337    0.00000       Uiso       1.00
      C339          C  0.4819925  0.8796854  0.5308384    0.00000       Uiso       1.00
      C340          C  0.4730580  0.9052725  0.5364362    0.00000       Uiso       1.00
      C341          C  0.4781262  0.9157198  0.5262522    0.00000       Uiso       1.00
      C342          C  0.4956796  0.8646583  0.5147951    0.00000       Uiso       1.00
      C343          C  0.5003318  0.8752706  0.5044797    0.00000       Uiso       1.00
      C344          C  0.4916671  0.9009981  0.5097877    0.00000       Uiso       1.00
      H147          H  0.4516674  0.9413932  0.4887099    0.00000       Uiso       1.00
      H148          H  0.4680841  0.8837570  0.4636668    0.00000       Uiso       1.00
      C345          C  0.5082528  0.9965994  0.5405089    0.00000       Uiso       1.00
      C346          C  0.4978308  0.0220270  0.5451150    0.00000       Uiso       1.00
      C347          C  0.4273873  0.9892048  0.4951713    0.00000       Uiso       1.00
      C348          C  0.4169787  0.0145686  0.4994627    0.00000       Uiso       1.00
      C349          C  0.5847970  0.8592572  0.4917441    0.00000       Uiso       1.00
      C350          C  0.6102257  0.8488544  0.5021624    0.00000       Uiso       1.00
      C351          C  0.5774063  0.9021761  0.5726096    0.00000       Uiso       1.00
      C352          C  0.6027736  0.8915123  0.5830159    0.00000       Uiso       1.00
      C353          C  0.5048302  0.8391909  0.5096304    0.00000       Uiso       1.00
      C354          C  0.5005367  0.8287870  0.5202983    0.00000       Uiso       1.00
      C355          C  0.4903629  0.9166424  0.4225942    0.00000       Uiso       1.00
      C356          C  0.4796982  0.9123470  0.3972283    0.00000       Uiso       1.00
      H149          H  0.5025675  0.9273084  0.4335340    0.00000       Uiso       1.00
      H150          H  0.4839759  0.9197641  0.3892470    0.00000       Uiso       1.00
      H151          H  0.3973014  0.0225490  0.4920509    0.00000       Uiso       1.00
      H152          H  0.4154561  0.9782665  0.4845138    0.00000       Uiso       1.00
      H153          H  0.5279666  0.9885491  0.5475844    0.00000       Uiso       1.00
      H154          H  0.5097659  0.0329409  0.5556595    0.00000       Uiso       1.00
      H155          H  0.6107599  0.8957961  0.6026927    0.00000       Uiso       1.00
      H156          H  0.5664707  0.9143881  0.5845438    0.00000       Uiso       1.00
      H157          H  0.5767478  0.8546698  0.4720328    0.00000       Uiso       1.00
      H158          H  0.6211442  0.8365490  0.4902311    0.00000       Uiso       1.00
      H159          H  0.5079473  0.8091117  0.5160159    0.00000       Uiso       1.00
      H160          H  0.5154860  0.8272595  0.4974165    0.00000       Uiso       1.00
      C357          C  0.7374604  0.8147066  0.9550754    0.00000       Uiso       1.00
      C358          C  0.7247508  0.8381659  0.9532777    0.00000       Uiso       1.00
      C359          C  0.6992673  0.8489417  0.9493488    0.00000       Uiso       1.00
      C360          C  0.7247508  0.8021592  0.9532777    0.00000       Uiso       1.00
      C361          C  0.6993495  0.8129094  0.9495058    0.00000       Uiso       1.00
      C362          C  0.6859410  0.8365268  0.9473184    0.00000       Uiso       1.00
      H161          H  0.4550757  0.8761520  0.0211672    0.00000       Uiso       1.00
      H162          H  0.7348416  0.7830351  0.9547644    0.00000       Uiso       1.00
      C363          C  0.4029082  0.1492587  0.0088924    0.00000       Uiso       1.00
      C364          C  0.4263674  0.1365492  0.0214398    0.00000       Uiso       1.00
      C365          C  0.4372469  0.1111480  0.0106903    0.00000       Uiso       1.00
      C366          C  0.3903606  0.1365494  0.9854335    0.00000       Uiso       1.00
      C367          C  0.4011394  0.1110658  0.9746578    0.00000       Uiso       1.00
      C368          C  0.4248499  0.0977405  0.9870741    0.00000       Uiso       1.00
      H163          H  0.6899357  0.8668779  0.9474551    0.00000       Uiso       1.00
      H164          H  0.4368873  0.1466399  0.0405638    0.00000       Uiso       1.00
      C369          C  0.4029081  0.8685237  0.0088923    0.00000       Uiso       1.00
      C370          C  0.3903606  0.8703215  0.9854333    0.00000       Uiso       1.00
      C371          C  0.4011088  0.8740967  0.9745551    0.00000       Uiso       1.00
      C372          C  0.4263674  0.8703213  0.0214397    0.00000       Uiso       1.00
      C373          C  0.4371415  0.8742545  0.0106629    0.00000       Uiso       1.00
      C374          C  0.4247241  0.8762879  0.9869529    0.00000       Uiso       1.00
      H165          H  0.4643480  0.8024390  0.7218653    0.00000       Uiso       1.00
      H166          H  0.3712366  0.8688349  0.9749134    0.00000       Uiso       1.00
      C375          C  0.4567257  0.8147070  0.6743408    0.00000       Uiso       1.00
      C376          C  0.4585233  0.8021596  0.6870503    0.00000       Uiso       1.00
      C377          C  0.4624519  0.8129384  0.7125338    0.00000       Uiso       1.00
      C378          C  0.4585233  0.8381663  0.6870503    0.00000       Uiso       1.00
      C379          C  0.4622943  0.8490459  0.7124515    0.00000       Uiso       1.00
      C380          C  0.4644815  0.8366495  0.7258595    0.00000       Uiso       1.00
      H167          H  0.3906392  0.1017356  0.9567221    0.00000       Uiso       1.00
      C381          C  0.4999998  0.9118021  0.9118026    0.00000       Uiso       1.00
      H168          H  0.4570367  0.8486862  0.6769595    0.00000       Uiso       1.00
      Cl33         Cl  0.7403296  0.8544071  0.9555729    0.00000       Uiso       1.00
      Cl34         Cl  0.4562283  0.7726347  0.6714717    0.00000       Uiso       1.00
      Cl35         Cl  0.4426086  0.8680261  0.0509645    0.00000       Uiso       1.00
      Cl36         Cl  0.3608358  0.1521281  0.9691922    0.00000       Uiso       1.00
      Cl37         Cl  0.6846440  0.7963400  0.9480743    0.00000       Uiso       1.00
      Cl38         Cl  0.4637263  0.8788889  0.7271566    0.00000       Uiso       1.00
      Cl39         Cl  0.4670894  0.0964429  0.0272610    0.00000       Uiso       1.00
      Cl40         Cl  0.3845375  0.8755356  0.9447147    0.00000       Uiso       1.00
      C382          C  0.6584182  0.8479136  0.9428284    0.00000       Uiso       1.00
      C383          C  0.6470160  0.8735558  0.9521534    0.00000       Uiso       1.00
      C384          C  0.6214373  0.8841644  0.9478658    0.00000       Uiso       1.00
      C385          C  0.6432121  0.8332015  0.9291005    0.00000       Uiso       1.00
      C386          C  0.6176698  0.8435636  0.9248838    0.00000       Uiso       1.00
      C387          C  0.6067126  0.8691291  0.9342436    0.00000       Uiso       1.00
      H169          H  0.6511205  0.8136111  0.9212525    0.00000       Uiso       1.00
      H170          H  0.6580684  0.8853542  0.9630766    0.00000       Uiso       1.00
      C388          C  0.4364963  0.0702193  0.9756901    0.00000       Uiso       1.00
      C389          C  0.4526781  0.0550132  0.9904028    0.00000       Uiso       1.00
      C390          C  0.4636428  0.0294713  0.9800421    0.00000       Uiso       1.00
      C391          C  0.4315922  0.0588184  0.9500499    0.00000       Uiso       1.00
      C392          C  0.4422759  0.0332413  0.9394440    0.00000       Uiso       1.00
      C393          C  0.4584039  0.0185161  0.9544780    0.00000       Uiso       1.00
      H171          H  0.4196739  0.0698665  0.9382477    0.00000       Uiso       1.00
      H172          H  0.4565049  0.0629215  0.0099934    0.00000       Uiso       1.00
      C394          C  0.4361061  0.8807821  0.9753065    0.00000       Uiso       1.00
      C395          C  0.4213905  0.8945105  0.9591154    0.00000       Uiso       1.00
      C396          C  0.4317511  0.8987277  0.9481485    0.00000       Uiso       1.00
      C397          C  0.4617471  0.8714564  0.9802192    0.00000       Uiso       1.00
      C398          C  0.4723527  0.8757452  0.9695365    0.00000       Uiso       1.00
      C399          C  0.4573191  0.8893666  0.9533982    0.00000       Uiso       1.00
      H173          H  0.4735503  0.8605318  0.9921430    0.00000       Uiso       1.00
      H174          H  0.4017968  0.9023574  0.9552857    0.00000       Uiso       1.00
      C400          C  0.4689716  0.8482955  0.7533819    0.00000       Uiso       1.00
      C401          C  0.4596387  0.8433884  0.7647830    0.00000       Uiso       1.00
      C402          C  0.4639285  0.8540689  0.7903617    0.00000       Uiso       1.00
      C403          C  0.4827063  0.8644788  0.7685883    0.00000       Uiso       1.00
      C404          C  0.4869224  0.8754429  0.7941304    0.00000       Uiso       1.00
      C405          C  0.4775576  0.8701997  0.8050867    0.00000       Uiso       1.00
      H175          H  0.4905585  0.8683072  0.7606791    0.00000       Uiso       1.00
      H176          H  0.4487070  0.8314692  0.7537265    0.00000       Uiso       1.00
      C406          C  0.4548688  0.8488666  0.8015736    0.00000       Uiso       1.00
      C407          C  0.4594782  0.8592659  0.8270020    0.00000       Uiso       1.00
      C408          C  0.4370795  0.0220304  0.9139695    0.00000       Uiso       1.00
      C409          C  0.4474813  0.9966033  0.9035499    0.00000       Uiso       1.00
      H177          H  0.4247834  0.0329437  0.9020334    0.00000       Uiso       1.00
      H178          H  0.4429025  0.9885548  0.8838380    0.00000       Uiso       1.00
      H179          H  0.4443172  0.8365698  0.7906570    0.00000       Uiso       1.00
      H180          H  0.4523992  0.8546863  0.8350547    0.00000       Uiso       1.00
      C410          C  0.5809571  0.8796861  0.9298092    0.00000       Uiso       1.00
      C411          C  0.5699031  0.9052716  0.9387394    0.00000       Uiso       1.00
      C412          C  0.5442057  0.9157194  0.9336740    0.00000       Uiso       1.00
      C413          C  0.5662541  0.8646603  0.9161232    0.00000       Uiso       1.00
      C414          C  0.5406752  0.8752735  0.9114687    0.00000       Uiso       1.00
      C415          C  0.5289217  0.9009999  0.9201356    0.00000       Uiso       1.00
      H181          H  0.5074254  0.9413978  0.9601373    0.00000       Uiso       1.00
      H182          H  0.5236265  0.8837878  0.9437473    0.00000       Uiso       1.00
      C416          C  0.4691680  0.9927618  0.9439203    0.00000       Uiso       1.00
      C417          C  0.4852037  0.9780568  0.9589459    0.00000       Uiso       1.00
      C418          C  0.4955169  0.9524770  0.9483328    0.00000       Uiso       1.00
      C419          C  0.4635766  0.9817085  0.9183344    0.00000       Uiso       1.00
      C420          C  0.4737598  0.9560103  0.9078867    0.00000       Uiso       1.00
      C421          C  0.4902149  0.9407244  0.9226059    0.00000       Uiso       1.00
      H183          H  0.5363299  0.9354284  0.9398232    0.00000       Uiso       1.00
      H184          H  0.5112862  0.9192497  0.8822004    0.00000       Uiso       1.00
      C422          C  0.4678802  0.8937969  0.9426361    0.00000       Uiso       1.00
      C423          C  0.4528539  0.9074809  0.9265901    0.00000       Uiso       1.00
      C424          C  0.4634690  0.9121338  0.9162787    0.00000       Uiso       1.00
      C425          C  0.4934680  0.8848659  0.9482398    0.00000       Uiso       1.00
      C426          C  0.5039173  0.8899332  0.9380583    0.00000       Uiso       1.00
      C427          C  0.4891973  0.9034699  0.9215903    0.00000       Uiso       1.00
      H185          H  0.4719690  0.8798758  0.8754755    0.00000       Uiso       1.00
      H186          H  0.5295978  0.8634680  0.9005018    0.00000       Uiso       1.00
      C428          C  0.4819920  0.8809634  0.8308420    0.00000       Uiso       1.00
      C429          C  0.4730576  0.8753657  0.8418968    0.00000       Uiso       1.00
      C430          C  0.4781258  0.8855496  0.8675963    0.00000       Uiso       1.00
      C431          C  0.4956791  0.8970069  0.8455454    0.00000       Uiso       1.00
      C432          C  0.5003312  0.9073222  0.8711250    0.00000       Uiso       1.00
      C433          C  0.4916666  0.9020141  0.8828799    0.00000       Uiso       1.00
      H187          H  0.4516669  0.9230919  0.9043531    0.00000       Uiso       1.00
      H188          H  0.4680835  0.9481351  0.8881766    0.00000       Uiso       1.00
      C434          C  0.5082522  0.8712928  0.9643457    0.00000       Uiso       1.00
      C435          C  0.4978301  0.8666866  0.9747453    0.00000       Uiso       1.00
      C436          C  0.4273868  0.9166304  0.9214231    0.00000       Uiso       1.00
      C437          C  0.4169779  0.9123390  0.9320869    0.00000       Uiso       1.00
      C438          C  0.5847964  0.9200577  0.9523124    0.00000       Uiso       1.00
      C439          C  0.6102251  0.9096393  0.9569200    0.00000       Uiso       1.00
      C440          C  0.5774059  0.8391921  0.9069753    0.00000       Uiso       1.00
      C441          C  0.6027732  0.8287858  0.9112726    0.00000       Uiso       1.00
      C442          C  0.5048298  0.9021716  0.8343932    0.00000       Uiso       1.00
      C443          C  0.5005363  0.8915036  0.8090279    0.00000       Uiso       1.00
      C444          C  0.4903621  0.9892076  0.9844133    0.00000       Uiso       1.00
      C445          C  0.4796975  0.0145733  0.9948189    0.00000       Uiso       1.00
      H189          H  0.5025667  0.9782678  0.9963440    0.00000       Uiso       1.00
      H190          H  0.4839754  0.0225544  0.0144948    0.00000       Uiso       1.00
      H191          H  0.3973006  0.9197509  0.9278020    0.00000       Uiso       1.00
      H192          H  0.4154555  0.9272881  0.9092112    0.00000       Uiso       1.00
      H193          H  0.5279660  0.8642173  0.9689336    0.00000       Uiso       1.00
      H194          H  0.5097651  0.8561420  0.9870497    0.00000       Uiso       1.00
      H195          H  0.6107596  0.8091090  0.9038658    0.00000       Uiso       1.00
      H196          H  0.5664703  0.8272579  0.8963175    0.00000       Uiso       1.00
      H197          H  0.5767472  0.9397690  0.9593871    0.00000       Uiso       1.00
      H198          H  0.6211436  0.9215707  0.9674644    0.00000       Uiso       1.00
      H199          H  0.5079469  0.8957860  0.8010456    0.00000       Uiso       1.00
      H200          H  0.5154855  0.9143854  0.8453315    0.00000       Uiso       1.00
      C446          C  0.8147066  0.8147070  0.6743407    0.00000       Uiso       1.00
      C447          C  0.8021591  0.8381663  0.6870502    0.00000       Uiso       1.00
      C448          C  0.8129379  0.8489421  0.7125337    0.00000       Uiso       1.00
      C449          C  0.8381658  0.8021596  0.6870502    0.00000       Uiso       1.00
      C450          C  0.8490450  0.8129097  0.7124515    0.00000       Uiso       1.00
      C451          C  0.8366486  0.8365272  0.7258600    0.00000       Uiso       1.00
      H201          H  0.1017370  0.8761523  0.9567250    0.00000       Uiso       1.00
      H202          H  0.8486857  0.7830356  0.6769594    0.00000       Uiso       1.00
      C452          C  0.8685237  0.1492588  0.0088924    0.00000       Uiso       1.00
      C453          C  0.8703212  0.1365494  0.9854334    0.00000       Uiso       1.00
      C454          C  0.8740933  0.1111483  0.9745539    0.00000       Uiso       1.00
      C455          C  0.8703213  0.1365493  0.0214398    0.00000       Uiso       1.00
      C456          C  0.8742505  0.1110657  0.0106610    0.00000       Uiso       1.00
      C457          C  0.8762814  0.0977405  0.9869508    0.00000       Uiso       1.00
      H203          H  0.8024395  0.8668782  0.7218652    0.00000       Uiso       1.00
      H204          H  0.8688346  0.1466402  0.9749135    0.00000       Uiso       1.00
      C458          C  0.1492581  0.8685238  0.0088922    0.00000       Uiso       1.00
      C459          C  0.1365486  0.8703214  0.0214396    0.00000       Uiso       1.00
      C460          C  0.1111470  0.8740966  0.0106914    0.00000       Uiso       1.00
      C461          C  0.1365485  0.8703216  0.9854332    0.00000       Uiso       1.00
      C462          C  0.1110645  0.8742547  0.9746591    0.00000       Uiso       1.00
      C463          C  0.0977381  0.8762880  0.9870765    0.00000       Uiso       1.00
      H205          H  0.8668763  0.8024387  0.9474530    0.00000       Uiso       1.00
      H206          H  0.1466394  0.8688347  0.0405637    0.00000       Uiso       1.00
      C464          C  0.8147061  0.8147066  0.9550753    0.00000       Uiso       1.00
      C465          C  0.8381655  0.8021592  0.9532777    0.00000       Uiso       1.00
      C466          C  0.8489414  0.8129381  0.9493490    0.00000       Uiso       1.00
      C467          C  0.8021588  0.8381659  0.9532777    0.00000       Uiso       1.00
      C468          C  0.8129092  0.8490456  0.9495067    0.00000       Uiso       1.00
      C469          C  0.8365266  0.8366492  0.9473195    0.00000       Uiso       1.00
      H207          H  0.8761452  0.1017355  0.0211612    0.00000       Uiso       1.00
      C470          C  0.9117985  0.9118022  0.9118010    0.00000       Uiso       1.00
      H208          H  0.7830347  0.8486859  0.9547644    0.00000       Uiso       1.00
      Cl41         Cl  0.7726343  0.8544076  0.6714715    0.00000       Uiso       1.00
      Cl42         Cl  0.8544067  0.7726344  0.9555728    0.00000       Uiso       1.00
      Cl43         Cl  0.1521272  0.8680265  0.9691920    0.00000       Uiso       1.00
      Cl44         Cl  0.8680261  0.1521280  0.0509646    0.00000       Uiso       1.00
      Cl45         Cl  0.8788882  0.7963405  0.7271570    0.00000       Uiso       1.00
      Cl46         Cl  0.7963393  0.8788887  0.9480746    0.00000       Uiso       1.00
      Cl47         Cl  0.8755267  0.0964432  0.9447114    0.00000       Uiso       1.00
      Cl48         Cl  0.0964389  0.8755355  0.0272627    0.00000       Uiso       1.00
      C471          C  0.8482946  0.8479139  0.7533828    0.00000       Uiso       1.00
      C472          C  0.8433796  0.8735562  0.7647849    0.00000       Uiso       1.00
      C473          C  0.8540622  0.8841646  0.7903637    0.00000       Uiso       1.00
      C474          C  0.8644848  0.8332019  0.7685889    0.00000       Uiso       1.00
      C475          C  0.8754484  0.8435639  0.7941311    0.00000       Uiso       1.00
      C476          C  0.8701999  0.8691293  0.8050883    0.00000       Uiso       1.00
      H209          H  0.8683190  0.8136113  0.7606804    0.00000       Uiso       1.00
      H210          H  0.8314519  0.8853546  0.7537326    0.00000       Uiso       1.00
      C477          C  0.8807722  0.0702194  0.9753045    0.00000       Uiso       1.00
      C478          C  0.8945092  0.0550133  0.9591227    0.00000       Uiso       1.00
      C479          C  0.8987256  0.0294714  0.9481579    0.00000       Uiso       1.00
      C480          C  0.8714371  0.0588184  0.9802086    0.00000       Uiso       1.00
      C481          C  0.8757244  0.0332413  0.9695249    0.00000       Uiso       1.00
      C482          C  0.8893559  0.0185161  0.9533970    0.00000       Uiso       1.00
      H211          H  0.8605050  0.0698665  0.9921268    0.00000       Uiso       1.00
      H212          H  0.9023650  0.0629218  0.9552960    0.00000       Uiso       1.00
      C483          C  0.0702155  0.8807821  0.9756945    0.00000       Uiso       1.00
      C484          C  0.0550118  0.8945105  0.9904101    0.00000       Uiso       1.00
      C485          C  0.0294671  0.8987277  0.9800494    0.00000       Uiso       1.00
      C486          C  0.0588129  0.8714566  0.9500535    0.00000       Uiso       1.00
      C487          C  0.0332359  0.8757454  0.9394479    0.00000       Uiso       1.00
      C488          C  0.0185099  0.8893666  0.9544815    0.00000       Uiso       1.00
      H213          H  0.0698582  0.8605320  0.9382503    0.00000       Uiso       1.00
      H214          H  0.0629289  0.9023573  0.0100034    0.00000       Uiso       1.00
      C489          C  0.8479127  0.8482953  0.9428294    0.00000       Uiso       1.00
      C490          C  0.8735538  0.8433883  0.9521623    0.00000       Uiso       1.00
      C491          C  0.8841622  0.8540688  0.9478723    0.00000       Uiso       1.00
      C492          C  0.8332012  0.8644785  0.9290946    0.00000       Uiso       1.00
      C493          C  0.8435631  0.8754427  0.9248785    0.00000       Uiso       1.00
      C494          C  0.8691273  0.8701995  0.9342432    0.00000       Uiso       1.00
      H215          H  0.8136114  0.8683070  0.9212426    0.00000       Uiso       1.00
      H216          H  0.8853482  0.8314690  0.9630939    0.00000       Uiso       1.00
      C495          C  0.9096361  0.8488664  0.9569320    0.00000       Uiso       1.00
      C496          C  0.9200557  0.8592658  0.9523227    0.00000       Uiso       1.00
      C497          C  0.8666574  0.0220304  0.9747214    0.00000       Uiso       1.00
      C498          C  0.8712631  0.9966033  0.9643194    0.00000       Uiso       1.00
      H217          H  0.8561042  0.0329436  0.9870175    0.00000       Uiso       1.00
      H218          H  0.8641784  0.9885548  0.9688982    0.00000       Uiso       1.00
      H219          H  0.9215679  0.8365695  0.9674836    0.00000       Uiso       1.00
      H220          H  0.9397670  0.8546861  0.9594016    0.00000       Uiso       1.00
      C499          C  0.8809639  0.8796864  0.8308438    0.00000       Uiso       1.00
      C500          C  0.8753626  0.9052719  0.8418978    0.00000       Uiso       1.00
      C501          C  0.8855467  0.9157196  0.8675951    0.00000       Uiso       1.00
      C502          C  0.8970066  0.8646605  0.8455468    0.00000       Uiso       1.00
      C503          C  0.9073179  0.8752736  0.8711257    0.00000       Uiso       1.00
      C504          C  0.9020119  0.9010000  0.8828791    0.00000       Uiso       1.00
      H221          H  0.9231117  0.9413980  0.9043752    0.00000       Uiso       1.00
      H222          H  0.9481308  0.8837879  0.8881743    0.00000       Uiso       1.00
      C505          C  0.8937882  0.9927618  0.9426327    0.00000       Uiso       1.00
      C506          C  0.9074830  0.9780570  0.9265969    0.00000       Uiso       1.00
      C507          C  0.9121366  0.9524772  0.9162838    0.00000       Uiso       1.00
      C508          C  0.8848470  0.9817085  0.9482241    0.00000       Uiso       1.00
      C509          C  0.8899143  0.9560103  0.9380409    0.00000       Uiso       1.00
      C510          C  0.9034644  0.9407245  0.9215859    0.00000       Uiso       1.00
      H223          H  0.8798627  0.9354286  0.8754709    0.00000       Uiso       1.00
      H224          H  0.8634623  0.9192498  0.9005145    0.00000       Uiso       1.00
      C511          C  0.9927567  0.8937969  0.9439204    0.00000       Uiso       1.00
      C512          C  0.9780530  0.9074809  0.9589466    0.00000       Uiso       1.00
      C513          C  0.9524735  0.9121338  0.9483316    0.00000       Uiso       1.00
      C514          C  0.9817036  0.8848660  0.9183327    0.00000       Uiso       1.00
      C515          C  0.9560055  0.8899333  0.9078833    0.00000       Uiso       1.00
      C516          C  0.9407209  0.9034699  0.9226034    0.00000       Uiso       1.00
      H225          H  0.9354284  0.8798758  0.9398319    0.00000       Uiso       1.00
      H226          H  0.9192339  0.8634681  0.8822030    0.00000       Uiso       1.00
      C517          C  0.8796843  0.8809634  0.9298087    0.00000       Uiso       1.00
      C518          C  0.9052715  0.8753656  0.9387433    0.00000       Uiso       1.00
      C519          C  0.9157187  0.8855496  0.9336750    0.00000       Uiso       1.00
      C520          C  0.8646573  0.8970068  0.9161217    0.00000       Uiso       1.00
      C521          C  0.8752695  0.9073221  0.9114696    0.00000       Uiso       1.00
      C522          C  0.9009970  0.9020141  0.9201342    0.00000       Uiso       1.00
      H227          H  0.9413921  0.9230919  0.9601339    0.00000       Uiso       1.00
      H228          H  0.8837558  0.9481351  0.9437172    0.00000       Uiso       1.00
      C523          C  0.9965983  0.8712929  0.9035484    0.00000       Uiso       1.00
      C524          C  0.0220259  0.8666868  0.9139706    0.00000       Uiso       1.00
      C525          C  0.9892036  0.9166305  0.9844139    0.00000       Uiso       1.00
      C526          C  0.0145673  0.9123391  0.9948226    0.00000       Uiso       1.00
      C527          C  0.8592561  0.9200580  0.8270044    0.00000       Uiso       1.00
      C528          C  0.8488534  0.9096397  0.8015758    0.00000       Uiso       1.00
      C529          C  0.9021752  0.8391923  0.8343950    0.00000       Uiso       1.00
      C530          C  0.8915115  0.8287860  0.8090277    0.00000       Uiso       1.00
      C531          C  0.8391898  0.9021715  0.9069711    0.00000       Uiso       1.00
      C532          C  0.8287858  0.8915035  0.9112646    0.00000       Uiso       1.00
      C533          C  0.9166412  0.9892077  0.9214385    0.00000       Uiso       1.00
      C534          C  0.9123458  0.0145734  0.9321032    0.00000       Uiso       1.00
      H229          H  0.9273071  0.9782680  0.9092339    0.00000       Uiso       1.00
      H230          H  0.9197630  0.0225547  0.9278255    0.00000       Uiso       1.00
      H231          H  0.0225479  0.9197508  0.0144997    0.00000       Uiso       1.00
      H232          H  0.9782652  0.9272881  0.9963451    0.00000       Uiso       1.00
      H233          H  0.9885480  0.8642175  0.8838347    0.00000       Uiso       1.00
      H234          H  0.0329399  0.8561423  0.9020355    0.00000       Uiso       1.00
      H235          H  0.8957952  0.8091092  0.8010414    0.00000       Uiso       1.00
      H236          H  0.9143872  0.8272581  0.8453306    0.00000       Uiso       1.00
      H237          H  0.8546687  0.9397693  0.8350536    0.00000       Uiso       1.00
      H238          H  0.8365480  0.9215710  0.7906572    0.00000       Uiso       1.00
      H239          H  0.8091106  0.8957859  0.9038540    0.00000       Uiso       1.00
      H240          H  0.8272584  0.9143854  0.8963153    0.00000       Uiso       1.00
        B1          B  0.7773622  0.4564424  0.5993679    0.00000       Uiso       1.00
        N1          N  0.8010610  0.4564513  0.6107403    0.00000       Uiso       1.00
        N2          N  0.8010612  0.4564513  0.6467746    0.00000       Uiso       1.00
        B2          B  0.8124335  0.4564424  0.6344392    0.00000       Uiso       1.00
        B3          B  0.7773623  0.4564424  0.6344392    0.00000       Uiso       1.00
        N3          N  0.7650269  0.4564513  0.6107403    0.00000       Uiso       1.00
        B4          B  0.4564420  0.7773625  0.6344396    0.00000       Uiso       1.00
        N4          N  0.4564509  0.8010613  0.6467749    0.00000       Uiso       1.00
        N5          N  0.4564510  0.8010616  0.6107409    0.00000       Uiso       1.00
        B5          B  0.4564420  0.8124340  0.6344396    0.00000       Uiso       1.00
        B6          B  0.4564421  0.7773627  0.5993685    0.00000       Uiso       1.00
        N6          N  0.4564510  0.7650272  0.6107408    0.00000       Uiso       1.00
      C535          C  0.3629357  0.3831255  0.5477550    0.00000       Uiso       1.00
      C536          C  0.3421031  0.3842279  0.5490104    0.00000       Uiso       1.00
      C537          C  0.3221082  0.4059956  0.5514504    0.00000       Uiso       1.00
      C538          C  0.3009209  0.4064310  0.5514395    0.00000       Uiso       1.00
      C539          C  0.2986985  0.3847502  0.5475976    0.00000       Uiso       1.00
      C540          C  0.3189420  0.3629344  0.5448049    0.00000       Uiso       1.00
      C541          C  0.3412863  0.3626005  0.5472067    0.00000       Uiso       1.00
        O1          O  0.3662786  0.4023142  0.5482812    0.00000       Uiso       1.00
      H241          H  0.3229990  0.4227082  0.5533897    0.00000       Uiso       1.00
      H242          H  0.2863388  0.4238619  0.5541986    0.00000       Uiso       1.00
      H243          H  0.3168412  0.3457735  0.5391778    0.00000       Uiso       1.00
      C542          C  0.3831289  0.2135256  0.5478195    0.00000       Uiso       1.00
      C543          C  0.3842340  0.2345177  0.5490895    0.00000       Uiso       1.00
      C544          C  0.4059969  0.2351854  0.5515173    0.00000       Uiso       1.00
      C545          C  0.4064260  0.2559263  0.5514992    0.00000       Uiso       1.00
      C546          C  0.3847430  0.2759850  0.5476559    0.00000       Uiso       1.00
      C547          C  0.3629352  0.2747663  0.5448874    0.00000       Uiso       1.00
      C548          C  0.3626094  0.2551592  0.5472994    0.00000       Uiso       1.00
        O2          O  0.4023114  0.1915108  0.5483126    0.00000       Uiso       1.00
      H244          H  0.4227083  0.2195196  0.5534406    0.00000       Uiso       1.00
      H245          H  0.4238539  0.2558327  0.5542462    0.00000       Uiso       1.00
      H246          H  0.3457698  0.2883931  0.5392622    0.00000       Uiso       1.00
      C549          C  0.2135125  0.3629659  0.5477973    0.00000       Uiso       1.00
      C550          C  0.2345081  0.3421488  0.5490862    0.00000       Uiso       1.00
      C551          C  0.2351794  0.3221652  0.5515481    0.00000       Uiso       1.00
      C552          C  0.2559285  0.3009837  0.5515605    0.00000       Uiso       1.00
      C553          C  0.2759930  0.2987585  0.5477207    0.00000       Uiso       1.00
      C554          C  0.2747721  0.3189994  0.5449193    0.00000       Uiso       1.00
      C555          C  0.2551498  0.3413354  0.5472897    0.00000       Uiso       1.00
        O3          O  0.1915086  0.3663016  0.5483192    0.00000       Uiso       1.00
      H247          H  0.2195046  0.3230603  0.5534741    0.00000       Uiso       1.00
      H248          H  0.2558384  0.2864051  0.5543255    0.00000       Uiso       1.00
      H249          H  0.2884121  0.3169005  0.5393008    0.00000       Uiso       1.00
      C556          C  0.2125151  0.3822247  0.5446228    0.00000       Uiso       1.00
      C557          C  0.2329240  0.3826851  0.5440412    0.00000       Uiso       1.00
      C558          C  0.2319971  0.4026847  0.5413833    0.00000       Uiso       1.00
      C559          C  0.2528956  0.4032058  0.5417753    0.00000       Uiso       1.00
      C560          C  0.2756127  0.3843491  0.5462505    0.00000       Uiso       1.00
      C561          C  0.2762474  0.3646362  0.5494355    0.00000       Uiso       1.00
      C562          C  0.2549354  0.3625365  0.5465866    0.00000       Uiso       1.00
        O4          O  0.1897826  0.4005791  0.5428131    0.00000       Uiso       1.00
      H250          H  0.2149385  0.4178978  0.5389044    0.00000       Uiso       1.00
      H251          H  0.2509833  0.4186210  0.5387409    0.00000       Uiso       1.00
      H252          H  0.2936488  0.3515153  0.5555841    0.00000       Uiso       1.00
      C563          C  0.3617010  0.2125430  0.5446869    0.00000       Uiso       1.00
      C564          C  0.3402575  0.2329604  0.5441280    0.00000       Uiso       1.00
      C565          C  0.3185378  0.2320542  0.5415228    0.00000       Uiso       1.00
      C566          C  0.2975190  0.2529595  0.5419312    0.00000       Uiso       1.00
      C567          C  0.2981278  0.2756661  0.5463654    0.00000       Uiso       1.00
      C568          C  0.3203820  0.2762795  0.5495012    0.00000       Uiso       1.00
      C569          C  0.3409343  0.2549599  0.5466400    0.00000       Uiso       1.00
        O5          O  0.3642701  0.1898138  0.5428846    0.00000       Uiso       1.00
      H253          H  0.3179027  0.2150021  0.5390614    0.00000       Uiso       1.00
      H254          H  0.2809910  0.2510554  0.5389335    0.00000       Uiso       1.00
      H255          H  0.3222620  0.2936709  0.5556319    0.00000       Uiso       1.00
      C570          C  0.3822117  0.3616942  0.5446200    0.00000       Uiso       1.00
      C571          C  0.3826684  0.3402494  0.5440449    0.00000       Uiso       1.00
      C572          C  0.4026922  0.3185345  0.5414468    0.00000       Uiso       1.00
      C573          C  0.4032193  0.2975152  0.5418587    0.00000       Uiso       1.00
      C574          C  0.3843313  0.2981175  0.5462801    0.00000       Uiso       1.00
      C575          C  0.3645880  0.3203674  0.5493984    0.00000       Uiso       1.00
      C576          C  0.3624978  0.3409224  0.5465431    0.00000       Uiso       1.00
        O6          O  0.4005845  0.3642649  0.5428445    0.00000       Uiso       1.00
      H256          H  0.4179195  0.3179089  0.5389950    0.00000       Uiso       1.00
      H257          H  0.4186641  0.2809944  0.5388767    0.00000       Uiso       1.00
      H258          H  0.3514382  0.3222431  0.5555170    0.00000       Uiso       1.00
        B7          B  0.3902543  0.3901215  0.5451570    0.00000       Uiso       1.00
        B8          B  0.3901213  0.1765945  0.5451755    0.00000       Uiso       1.00
        B9          B  0.1765814  0.3902567  0.5451525    0.00000       Uiso       1.00
      C577          C  0.3831257  0.3629363  0.1983094    0.00000       Uiso       1.00
      C578          C  0.3842281  0.3421037  0.1773237    0.00000       Uiso       1.00
      C579          C  0.4059958  0.3221088  0.1766566    0.00000       Uiso       1.00
      C580          C  0.4064313  0.3009216  0.1559157    0.00000       Uiso       1.00
      C581          C  0.3847505  0.2986991  0.1358543    0.00000       Uiso       1.00
      C582          C  0.3629346  0.3189427  0.1370747    0.00000       Uiso       1.00
      C583          C  0.3626007  0.3412870  0.1566834    0.00000       Uiso       1.00
        O7          O  0.4023143  0.3662792  0.2203147    0.00000       Uiso       1.00
      H259          H  0.4227084  0.3229997  0.1923207    0.00000       Uiso       1.00
      H260          H  0.4238621  0.2863395  0.1560052    0.00000       Uiso       1.00
      H261          H  0.3457738  0.3168419  0.1234402    0.00000       Uiso       1.00
      C584          C  0.2135260  0.3831297  0.0488384    0.00000       Uiso       1.00
      C585          C  0.2345181  0.3842348  0.0696656    0.00000       Uiso       1.00
      C586          C  0.2351858  0.4059976  0.0896683    0.00000       Uiso       1.00
      C587          C  0.2559265  0.4064267  0.1108563    0.00000       Uiso       1.00
      C588          C  0.2759853  0.3847437  0.1130753    0.00000       Uiso       1.00
      C589          C  0.2747666  0.3629359  0.0928173    0.00000       Uiso       1.00
      C590          C  0.2551596  0.3626102  0.0704726    0.00000       Uiso       1.00
        O8          O  0.1915112  0.4023122  0.0455130    0.00000       Uiso       1.00
      H262          H  0.2195199  0.4227090  0.0887906    0.00000       Uiso       1.00
      H263          H  0.2558330  0.4238546  0.1254436    0.00000       Uiso       1.00
      H264          H  0.2883934  0.3457705  0.0949040    0.00000       Uiso       1.00
      C591          C  0.3629663  0.2135133  0.0286844    0.00000       Uiso       1.00
      C592          C  0.3421493  0.2345090  0.0275742    0.00000       Uiso       1.00
      C593          C  0.3221656  0.2351803  0.0057999    0.00000       Uiso       1.00
      C594          C  0.3009842  0.2559294  0.0053551    0.00000       Uiso       1.00
      C595          C  0.2987589  0.2759938  0.0270341    0.00000       Uiso       1.00
      C596          C  0.3189998  0.2747729  0.0488556    0.00000       Uiso       1.00
      C597          C  0.3413358  0.2551506  0.0491989    0.00000       Uiso       1.00
        O9          O  0.3663021  0.1915094  0.0094944    0.00000       Uiso       1.00
      H265          H  0.3230606  0.2195055  0.9890944    0.00000       Uiso       1.00
      H266          H  0.2864054  0.2558393  0.9879217    0.00000       Uiso       1.00
      H267          H  0.3169008  0.2884128  0.0660150    0.00000       Uiso       1.00
      C598          C  0.3822251  0.2125159  0.0501205    0.00000       Uiso       1.00
      C599          C  0.3826854  0.2329248  0.0715713    0.00000       Uiso       1.00
      C600          C  0.4026850  0.2319979  0.0933019    0.00000       Uiso       1.00
      C601          C  0.4032061  0.2528963  0.1143293    0.00000       Uiso       1.00
      C602          C  0.3843494  0.2756134  0.1137145    0.00000       Uiso       1.00
      C603          C  0.3646366  0.2762481  0.0914515    0.00000       Uiso       1.00
      C604          C  0.3625369  0.2549362  0.0708887    0.00000       Uiso       1.00
       O10          O  0.4005795  0.1897834  0.0475520    0.00000       Uiso       1.00
      H268          H  0.4178981  0.2149393  0.0939352    0.00000       Uiso       1.00
      H269          H  0.4186213  0.2509840  0.1308666    0.00000       Uiso       1.00
      H270          H  0.3515156  0.2936496  0.0895833    0.00000       Uiso       1.00
      C605          C  0.2125434  0.3617018  0.0295605    0.00000       Uiso       1.00
      C606          C  0.2329609  0.3402583  0.0290933    0.00000       Uiso       1.00
      C607          C  0.2320546  0.3185387  0.0090726    0.00000       Uiso       1.00
      C608          C  0.2529600  0.2975199  0.0085508    0.00000       Uiso       1.00
      C609          C  0.2756665  0.2981287  0.0274320    0.00000       Uiso       1.00
      C610          C  0.2762799  0.3203827  0.0471637    0.00000       Uiso       1.00
      C611          C  0.2549603  0.3409351  0.0492576    0.00000       Uiso       1.00
       O11          O  0.1898142  0.3642709  0.0112027    0.00000       Uiso       1.00
      H271          H  0.2150024  0.3179037  0.9938473    0.00000       Uiso       1.00
      H272          H  0.2510557  0.2809920  0.9931167    0.00000       Uiso       1.00
      H273          H  0.2936713  0.3222629  0.0603044    0.00000       Uiso       1.00
      C612          C  0.3616943  0.3822123  0.1992890    0.00000       Uiso       1.00
      C613          C  0.3402496  0.3826690  0.1788761    0.00000       Uiso       1.00
      C614          C  0.3185347  0.4026929  0.1797831    0.00000       Uiso       1.00
      C615          C  0.2975154  0.4032199  0.1588790    0.00000       Uiso       1.00
      C616          C  0.2981177  0.3843320  0.1361719    0.00000       Uiso       1.00
      C617          C  0.3203676  0.3645887  0.1355602    0.00000       Uiso       1.00
      C618          C  0.3409227  0.3624984  0.1568804    0.00000       Uiso       1.00
       O12          O  0.3642650  0.4005851  0.2220081    0.00000       Uiso       1.00
      H274          H  0.3179090  0.4179201  0.1968365    0.00000       Uiso       1.00
      H275          H  0.2809947  0.4186647  0.1607850    0.00000       Uiso       1.00
      H276          H  0.3222434  0.3514389  0.1181677    0.00000       Uiso       1.00
       B10          B  0.3901216  0.3902549  0.2352220    0.00000       Uiso       1.00
       B11          B  0.1765949  0.3901222  0.0215438    0.00000       Uiso       1.00
       B12          B  0.3902572  0.1765823  0.0216890    0.00000       Uiso       1.00
       B13          B  0.8124334  0.7773620  0.9553591    0.00000       Uiso       1.00
        N7          N  0.8010608  0.8010609  0.9553502    0.00000       Uiso       1.00
        N8          N  0.7650264  0.8010611  0.9553501    0.00000       Uiso       1.00
       B14          B  0.7773619  0.8124334  0.9553591    0.00000       Uiso       1.00
       B15          B  0.7773619  0.7773622  0.9553591    0.00000       Uiso       1.00
        N9          N  0.8010608  0.7650267  0.9553502    0.00000       Uiso       1.00
      C619          C  0.8640463  0.3629350  0.0286757    0.00000       Uiso       1.00
      C620          C  0.8627910  0.3421024  0.0275734    0.00000       Uiso       1.00
      C621          C  0.8603510  0.3221075  0.0058057    0.00000       Uiso       1.00
      C622          C  0.8603620  0.3009202  0.0053702    0.00000       Uiso       1.00
      C623          C  0.8642038  0.2986977  0.0270510    0.00000       Uiso       1.00
      C624          C  0.8669965  0.3189412  0.0488668    0.00000       Uiso       1.00
      C625          C  0.8645947  0.3412856  0.0492007    0.00000       Uiso       1.00
       O13          O  0.8635201  0.3662779  0.0094871    0.00000       Uiso       1.00
      H277          H  0.8584115  0.3229985  0.9890933    0.00000       Uiso       1.00
      H278          H  0.8576027  0.2863382  0.9879398    0.00000       Uiso       1.00
      H279          H  0.8726236  0.3168404  0.0660277    0.00000       Uiso       1.00
      C626          C  0.8639817  0.3831279  0.1982754    0.00000       Uiso       1.00
      C627          C  0.8627117  0.3842330  0.1772833    0.00000       Uiso       1.00
      C628          C  0.8602838  0.4059959  0.1766156    0.00000       Uiso       1.00
      C629          C  0.8603020  0.4064250  0.1558748    0.00000       Uiso       1.00
      C630          C  0.8641453  0.3847421  0.1358161    0.00000       Uiso       1.00
      C631          C  0.8669137  0.3629343  0.1370348    0.00000       Uiso       1.00
      C632          C  0.8645018  0.3626085  0.1566419    0.00000       Uiso       1.00
       O14          O  0.8634885  0.4023104  0.2202902    0.00000       Uiso       1.00
      H280          H  0.8583604  0.4227073  0.1922814    0.00000       Uiso       1.00
      H281          H  0.8575549  0.4238529  0.1559683    0.00000       Uiso       1.00
      H282          H  0.8725392  0.3457688  0.1234081    0.00000       Uiso       1.00
      C633          C  0.8640040  0.2135117  0.0488354    0.00000       Uiso       1.00
      C634          C  0.8627151  0.2345073  0.0696523    0.00000       Uiso       1.00
      C635          C  0.8602532  0.2351786  0.0896360    0.00000       Uiso       1.00
      C636          C  0.8602407  0.2559276  0.1108174    0.00000       Uiso       1.00
      C637          C  0.8640805  0.2759921  0.1130426    0.00000       Uiso       1.00
      C638          C  0.8668820  0.2747712  0.0928018    0.00000       Uiso       1.00
      C639          C  0.8645116  0.2551489  0.0704658    0.00000       Uiso       1.00
       O15          O  0.8634821  0.1915078  0.0454996    0.00000       Uiso       1.00
      H283          H  0.8583271  0.2195037  0.0887408    0.00000       Uiso       1.00
      H284          H  0.8574758  0.2558375  0.1253960    0.00000       Uiso       1.00
      H285          H  0.8725005  0.2884112  0.0949007    0.00000       Uiso       1.00
      C640          C  0.8671787  0.2125144  0.0295766    0.00000       Uiso       1.00
      C641          C  0.8677602  0.2329233  0.0291162    0.00000       Uiso       1.00
      C642          C  0.8704181  0.2319964  0.0091166    0.00000       Uiso       1.00
      C643          C  0.8700261  0.2528949  0.0085955    0.00000       Uiso       1.00
      C644          C  0.8655509  0.2756119  0.0274521    0.00000       Uiso       1.00
      C645          C  0.8623659  0.2762466  0.0471650    0.00000       Uiso       1.00
      C646          C  0.8652148  0.2549346  0.0492647    0.00000       Uiso       1.00
       O16          O  0.8689884  0.1897818  0.0112222    0.00000       Uiso       1.00
      H286          H  0.8728969  0.2149379  0.9939039    0.00000       Uiso       1.00
      H287          H  0.8730603  0.2509827  0.9931806    0.00000       Uiso       1.00
      H288          H  0.8562171  0.2936480  0.0602859    0.00000       Uiso       1.00
      C647          C  0.8671142  0.3616999  0.1992580    0.00000       Uiso       1.00
      C648          C  0.8676731  0.3402565  0.1788406    0.00000       Uiso       1.00
      C649          C  0.8702784  0.3185368  0.1797469    0.00000       Uiso       1.00
      C650          C  0.8698700  0.2975180  0.1588416    0.00000       Uiso       1.00
      C651          C  0.8654359  0.2981269  0.1361350    0.00000       Uiso       1.00
      C652          C  0.8623000  0.3203810  0.1355216    0.00000       Uiso       1.00
      C653          C  0.8651612  0.3409334  0.1568412    0.00000       Uiso       1.00
       O17          O  0.8689165  0.3642690  0.2219872    0.00000       Uiso       1.00
      H289          H  0.8727398  0.3179017  0.1967989    0.00000       Uiso       1.00
      H290          H  0.8728678  0.2809901  0.1607457    0.00000       Uiso       1.00
      H291          H  0.8561694  0.3222612  0.1181302    0.00000       Uiso       1.00
      C654          C  0.8671814  0.3822109  0.0501070    0.00000       Uiso       1.00
      C655          C  0.8677564  0.3826676  0.0715518    0.00000       Uiso       1.00
      C656          C  0.8703545  0.4026914  0.0932667    0.00000       Uiso       1.00
      C657          C  0.8699426  0.4032184  0.1142859    0.00000       Uiso       1.00
      C658          C  0.8655211  0.3843305  0.1136837    0.00000       Uiso       1.00
      C659          C  0.8624028  0.3645872  0.0914338    0.00000       Uiso       1.00
      C660          C  0.8652583  0.3624970  0.0708788    0.00000       Uiso       1.00
       O18          O  0.8689568  0.4005837  0.0475363    0.00000       Uiso       1.00
      H292          H  0.8728062  0.4179187  0.0938923    0.00000       Uiso       1.00
      H293          H  0.8729245  0.4186632  0.1308067    0.00000       Uiso       1.00
      H294          H  0.8562844  0.3514373  0.0895580    0.00000       Uiso       1.00
       B16          B  0.8666444  0.3902536  0.0216798    0.00000       Uiso       1.00
       B17          B  0.8666256  0.3901203  0.2352064    0.00000       Uiso       1.00
       B18          B  0.8666489  0.1765807  0.0215445    0.00000       Uiso       1.00
       B19          B  0.7773620  0.7773625  0.5993679    0.00000       Uiso       1.00
       N10          N  0.7650266  0.8010614  0.6107403    0.00000       Uiso       1.00
       N11          N  0.8010607  0.8010616  0.6467746    0.00000       Uiso       1.00
       B20          B  0.7773619  0.8124339  0.6344392    0.00000       Uiso       1.00
       B21          B  0.8124332  0.7773626  0.6344392    0.00000       Uiso       1.00
       N12          N  0.8010609  0.7650272  0.6107403    0.00000       Uiso       1.00
      C661          C  0.3629360  0.8640478  0.1983094    0.00000       Uiso       1.00
      C662          C  0.3421034  0.8627924  0.1773238    0.00000       Uiso       1.00
      C663          C  0.3221084  0.8603525  0.1766566    0.00000       Uiso       1.00
      C664          C  0.3009212  0.8603634  0.1559157    0.00000       Uiso       1.00
      C665          C  0.2986988  0.8642052  0.1358544    0.00000       Uiso       1.00
      C666          C  0.3189424  0.8669979  0.1370747    0.00000       Uiso       1.00
      C667          C  0.3412866  0.8645961  0.1566834    0.00000       Uiso       1.00
       O19          O  0.3662789  0.8635215  0.2203148    0.00000       Uiso       1.00
      H295          H  0.3229993  0.8584130  0.1923207    0.00000       Uiso       1.00
      H296          H  0.2863391  0.8576042  0.1560053    0.00000       Uiso       1.00
      H297          H  0.3168415  0.8726251  0.1234402    0.00000       Uiso       1.00
      C668          C  0.3831294  0.8639835  0.0488384    0.00000       Uiso       1.00
      C669          C  0.3842344  0.8627134  0.0696656    0.00000       Uiso       1.00
      C670          C  0.4059973  0.8602856  0.0896683    0.00000       Uiso       1.00
      C671          C  0.4064263  0.8603036  0.1108563    0.00000       Uiso       1.00
      C672          C  0.3847433  0.8641469  0.1130753    0.00000       Uiso       1.00
      C673          C  0.3629356  0.8669155  0.0928174    0.00000       Uiso       1.00
      C674          C  0.3626098  0.8645036  0.0704726    0.00000       Uiso       1.00
       O20          O  0.4023119  0.8634904  0.0455130    0.00000       Uiso       1.00
      H298          H  0.4227087  0.8583623  0.0887906    0.00000       Uiso       1.00
      H299          H  0.4238542  0.8575566  0.1254436    0.00000       Uiso       1.00
      H300          H  0.3457701  0.8725408  0.0949040    0.00000       Uiso       1.00
      C675          C  0.2135129  0.8640057  0.0286844    0.00000       Uiso       1.00
      C676          C  0.2345087  0.8627168  0.0275742    0.00000       Uiso       1.00
      C677          C  0.2351799  0.8602549  0.0058000    0.00000       Uiso       1.00
      C678          C  0.2559290  0.8602425  0.0053551    0.00000       Uiso       1.00
      C679          C  0.2759934  0.8640823  0.0270342    0.00000       Uiso       1.00
      C680          C  0.2747725  0.8668838  0.0488556    0.00000       Uiso       1.00
      C681          C  0.2551502  0.8645133  0.0491989    0.00000       Uiso       1.00
       O21          O  0.1915091  0.8634838  0.0094944    0.00000       Uiso       1.00
      H301          H  0.2195049  0.8583290  0.9890944    0.00000       Uiso       1.00
      H302          H  0.2558387  0.8574777  0.9879217    0.00000       Uiso       1.00
      H303          H  0.2884124  0.8725022  0.0660151    0.00000       Uiso       1.00
      C682          C  0.2125156  0.8671802  0.0501205    0.00000       Uiso       1.00
      C683          C  0.2329245  0.8677618  0.0715713    0.00000       Uiso       1.00
      C684          C  0.2319975  0.8704196  0.0933019    0.00000       Uiso       1.00
      C685          C  0.2528959  0.8700275  0.1143294    0.00000       Uiso       1.00
      C686          C  0.2756130  0.8655524  0.1137146    0.00000       Uiso       1.00
      C687          C  0.2762477  0.8623674  0.0914515    0.00000       Uiso       1.00
      C688          C  0.2549358  0.8652164  0.0708887    0.00000       Uiso       1.00
       O22          O  0.1897830  0.8689899  0.0475520    0.00000       Uiso       1.00
      H304          H  0.2149389  0.8728985  0.0939352    0.00000       Uiso       1.00
      H305          H  0.2509837  0.8730619  0.1308666    0.00000       Uiso       1.00
      H306          H  0.2936493  0.8562188  0.0895833    0.00000       Uiso       1.00
      C689          C  0.3617014  0.8671162  0.0295605    0.00000       Uiso       1.00
      C690          C  0.3402579  0.8676750  0.0290933    0.00000       Uiso       1.00
      C691          C  0.3185383  0.8702803  0.0090726    0.00000       Uiso       1.00
      C692          C  0.2975195  0.8698719  0.0085508    0.00000       Uiso       1.00
      C693          C  0.2981283  0.8654377  0.0274320    0.00000       Uiso       1.00
      C694          C  0.3203824  0.8623018  0.0471637    0.00000       Uiso       1.00
      C695          C  0.3409347  0.8651630  0.0492576    0.00000       Uiso       1.00
       O23          O  0.3642706  0.8689185  0.0112027    0.00000       Uiso       1.00
      H307          H  0.3179031  0.8727418  0.9938473    0.00000       Uiso       1.00
      H308          H  0.2809913  0.8728697  0.9931167    0.00000       Uiso       1.00
      H309          H  0.3222625  0.8561710  0.0603044    0.00000       Uiso       1.00
      C696          C  0.3822120  0.8671827  0.1992890    0.00000       Uiso       1.00
      C697          C  0.3826686  0.8677579  0.1788761    0.00000       Uiso       1.00
      C698          C  0.4026925  0.8703560  0.1797831    0.00000       Uiso       1.00
      C699          C  0.4032196  0.8699442  0.1588790    0.00000       Uiso       1.00
      C700          C  0.3843316  0.8655227  0.1361719    0.00000       Uiso       1.00
      C701          C  0.3645883  0.8624044  0.1355602    0.00000       Uiso       1.00
      C702          C  0.3624981  0.8652598  0.1568804    0.00000       Uiso       1.00
       O24          O  0.4005847  0.8689583  0.2220081    0.00000       Uiso       1.00
      H310          H  0.4179198  0.8728077  0.1968366    0.00000       Uiso       1.00
      H311          H  0.4186643  0.8729261  0.1607850    0.00000       Uiso       1.00
      H312          H  0.3514385  0.8562859  0.1181677    0.00000       Uiso       1.00
       B22          B  0.3902545  0.8666458  0.2352220    0.00000       Uiso       1.00
       B23          B  0.3901218  0.8666276  0.0215438    0.00000       Uiso       1.00
       B24          B  0.1765819  0.8666505  0.0216891    0.00000       Uiso       1.00
