data_87
_audit_creation_date              0000-00-00
_audit_creation_method            'LanYouShi'
_symmetry_space_group_name_H-M    'P1'
_cell_length_a                    74.4253998
_cell_length_b                    74.4260025
_cell_length_c                    74.4260025
_cell_angle_alpha                 119.9994965
_cell_angle_beta                  60.0001984
_cell_angle_gamma                 119.9998016
loop_
_atom_site_label
_atom_site_type_symbol
_atom_site_fract_x
_atom_site_fract_y
_atom_site_fract_z
_atom_site_U_iso_or_equiv
_atom_site_adp_type
_atom_site_occupancy
        C1          C  0.5872967  0.7135053  0.5872998    0.00000       Uiso       1.00
        C2          C  0.5985786  0.7020781  0.5662071    0.00000       Uiso       1.00
        C3          C  0.5888872  0.6791654  0.5565184    0.00000       Uiso       1.00
        C4          C  0.5662038  0.7020779  0.5985813    0.00000       Uiso       1.00
        C5          C  0.5564221  0.6792390  0.5889157    0.00000       Uiso       1.00
        C6          C  0.5675681  0.6671832  0.5676809    0.00000       Uiso       1.00
        H1          H  0.3292197  0.4596064  0.5320525    0.00000       Uiso       1.00
        H2          H  0.5567449  0.7111505  0.6157761    0.00000       Uiso       1.00
        C7          C  0.5389102  0.4127033  0.2864974    0.00000       Uiso       1.00
        C8          C  0.5372937  0.4337959  0.2979246    0.00000       Uiso       1.00
        C9          C  0.5339019  0.4435778  0.3207633    0.00000       Uiso       1.00
       C10          C  0.5372939  0.4014217  0.2979248    0.00000       Uiso       1.00
       C11          C  0.5337610  0.4111131  0.3208376    0.00000       Uiso       1.00
       C12          C  0.5319347  0.4324315  0.3328185    0.00000       Uiso       1.00
        H3          H  0.5983266  0.6707753  0.5403917    0.00000       Uiso       1.00
        H4          H  0.5386303  0.4432546  0.2888517    0.00000       Uiso       1.00
       C13          C  0.2864923  0.4127013  0.5389113    0.00000       Uiso       1.00
       C14          C  0.2979199  0.4014198  0.5372952    0.00000       Uiso       1.00
       C15          C  0.3207592  0.4110838  0.5339009    0.00000       Uiso       1.00
       C16          C  0.2979197  0.4337941  0.5372949    0.00000       Uiso       1.00
       C17          C  0.3208331  0.4434814  0.5337586    0.00000       Uiso       1.00
       C18          C  0.3328154  0.4323169  0.5319306    0.00000       Uiso       1.00
        H5          H  0.5403905  0.4679445  0.5983315    0.00000       Uiso       1.00
        H6          H  0.2888471  0.3842249  0.5386319    0.00000       Uiso       1.00
       C19          C  0.5872983  0.4610914  0.5873014    0.00000       Uiso       1.00
       C20          C  0.5662053  0.4627075  0.5985830    0.00000       Uiso       1.00
       C21          C  0.5565163  0.4662398  0.5888914    0.00000       Uiso       1.00
       C22          C  0.5985801  0.4627078  0.5662087    0.00000       Uiso       1.00
       C23          C  0.5889140  0.4660984  0.5564264    0.00000       Uiso       1.00
       C24          C  0.5676790  0.4680648  0.5675722    0.00000       Uiso       1.00
        H7          H  0.5320575  0.4016720  0.3292266    0.00000       Uiso       1.00
       C25          C  0.4999994  0.4999997  0.4999997    0.00000       Uiso       1.00
        H8          H  0.6157752  0.4613713  0.5567501    0.00000       Uiso       1.00
       Cl1         Cl  0.6251252  0.7160854  0.5516043    0.00000       Uiso       1.00
       Cl2         Cl  0.5516023  0.4606439  0.6251294    0.00000       Uiso       1.00
       Cl3         Cl  0.2839123  0.4483967  0.5393583    0.00000       Uiso       1.00
       Cl4         Cl  0.5393577  0.3748754  0.2839178    0.00000       Uiso       1.00
       Cl5         Cl  0.5295892  0.6660168  0.6038134    0.00000       Uiso       1.00
       Cl6         Cl  0.6038125  0.4673861  0.5295940    0.00000       Uiso       1.00
       Cl7         Cl  0.5326130  0.4704098  0.3339848    0.00000       Uiso       1.00
       Cl8         Cl  0.3339838  0.3961844  0.5326073    0.00000       Uiso       1.00
       C26          C  0.5570970  0.6424369  0.5574428    0.00000       Uiso       1.00
       C27          C  0.5615163  0.6321851  0.5343874    0.00000       Uiso       1.00
       C28          C  0.5519114  0.6091867  0.5248491    0.00000       Uiso       1.00
       C29          C  0.5425399  0.6287647  0.5706708    0.00000       Uiso       1.00
       C30          C  0.5326824  0.6057991  0.5613541    0.00000       Uiso       1.00
       C31          C  0.5374016  0.5959474  0.5383677    0.00000       Uiso       1.00
        H9          H  0.5390925  0.6358753  0.5882850    0.00000       Uiso       1.00
       H10          H  0.5722408  0.6421226  0.5237792    0.00000       Uiso       1.00
       C32          C  0.5278967  0.4429029  0.3575634    0.00000       Uiso       1.00
       C33          C  0.5155452  0.4574522  0.3712354    0.00000       Uiso       1.00
       C34          C  0.5117541  0.4673107  0.3942006    0.00000       Uiso       1.00
       C35          C  0.5362903  0.4384936  0.3678143    0.00000       Uiso       1.00
       C36          C  0.5324353  0.4480995  0.3908112    0.00000       Uiso       1.00
       C37          C  0.5201787  0.4626003  0.4040509    0.00000       Uiso       1.00
       H11          H  0.5461197  0.4277777  0.3578809    0.00000       Uiso       1.00
       H12          H  0.5084819  0.4608928  0.3641246    0.00000       Uiso       1.00
       C38          C  0.3575617  0.4425508  0.5278900    0.00000       Uiso       1.00
       C39          C  0.3712320  0.4293198  0.5155466    0.00000       Uiso       1.00
       C40          C  0.3942000  0.4386354  0.5117550    0.00000       Uiso       1.00
       C41          C  0.3678140  0.4656052  0.5362747    0.00000       Uiso       1.00
       C42          C  0.3908111  0.4751410  0.5324187    0.00000       Uiso       1.00
       C43          C  0.4040519  0.4616242  0.5201716    0.00000       Uiso       1.00
       H13          H  0.3578828  0.4762176  0.5460972    0.00000       Uiso       1.00
       H14          H  0.3641137  0.4117028  0.5084913    0.00000       Uiso       1.00
       C44          C  0.5574412  0.4721019  0.5571009    0.00000       Uiso       1.00
       C45          C  0.5343866  0.4637103  0.5615128    0.00000       Uiso       1.00
       C46          C  0.5248482  0.4675674  0.5519096    0.00000       Uiso       1.00
       C47          C  0.5706688  0.4844511  0.5425501    0.00000       Uiso       1.00
       C48          C  0.5613521  0.4882419  0.5326919    0.00000       Uiso       1.00
       C49          C  0.5383665  0.4798217  0.5374061    0.00000       Uiso       1.00
       H15          H  0.5882826  0.4915112  0.5391079    0.00000       Uiso       1.00
       H16          H  0.5237819  0.4538814  0.5722297    0.00000       Uiso       1.00
       C50          C  0.5019439  0.4594215  0.5565870    0.00000       Uiso       1.00
       C51          C  0.4925752  0.4635658  0.5472366    0.00000       Uiso       1.00
       C52          C  0.5405878  0.4434272  0.4008913    0.00000       Uiso       1.00
       C53          C  0.5364465  0.4527798  0.4237536    0.00000       Uiso       1.00
       Cl9         Cl  0.4637905  0.4532282  0.5539242    0.00000       Uiso       1.00
      Cl10         Cl  0.4845135  0.4440073  0.5745506    0.00000       Uiso       1.00
      Cl11         Cl  0.5467921  0.4460936  0.4355066    0.00000       Uiso       1.00
      Cl12         Cl  0.5560038  0.4254657  0.3849499    0.00000       Uiso       1.00
       C54          C  0.5277235  0.5727901  0.5288756    0.00000       Uiso       1.00
       C55          C  0.5327598  0.5628513  0.5058712    0.00000       Uiso       1.00
       C56          C  0.5236031  0.5397463  0.4964775    0.00000       Uiso       1.00
       C57          C  0.5132989  0.5595702  0.5423857    0.00000       Uiso       1.00
       C58          C  0.5040278  0.5365717  0.5328433    0.00000       Uiso       1.00
       C59          C  0.5087988  0.5260040  0.5097122    0.00000       Uiso       1.00
       H17          H  0.4898274  0.5066763  0.4733894    0.00000       Uiso       1.00
       H18          H  0.4673318  0.5212427  0.5251878    0.00000       Uiso       1.00
       C60          C  0.5161933  0.4722786  0.4272073    0.00000       Uiso       1.00
       C61          C  0.5038798  0.4866965  0.4404286    0.00000       Uiso       1.00
       C62          C  0.4996955  0.4959692  0.4634280    0.00000       Uiso       1.00
       C63          C  0.5242326  0.4672513  0.4371457    0.00000       Uiso       1.00
       C64          C  0.5196763  0.4764071  0.4602515    0.00000       Uiso       1.00
       C65          C  0.5074929  0.4912021  0.4739951    0.00000       Uiso       1.00
       H19          H  0.5287138  0.5326651  0.4787568    0.00000       Uiso       1.00
       H20          H  0.5434601  0.5101479  0.4933037    0.00000       Uiso       1.00
       C66          C  0.4272076  0.4711199  0.5161884    0.00000       Uiso       1.00
       C67          C  0.4404282  0.4576097  0.5038850    0.00000       Uiso       1.00
       C68          C  0.4634275  0.4671541  0.4997015    0.00000       Uiso       1.00
       C69          C  0.4371455  0.4941265  0.5242183    0.00000       Uiso       1.00
       C70          C  0.4602516  0.5035219  0.5196623    0.00000       Uiso       1.00
       C71          C  0.4739945  0.4902868  0.5074914    0.00000       Uiso       1.00
       H21          H  0.4787531  0.4747965  0.5287055    0.00000       Uiso       1.00
       H22          H  0.4933139  0.5266117  0.5434579    0.00000       Uiso       1.00
       C72          C  0.5288743  0.4838088  0.5277280    0.00000       Uiso       1.00
       C73          C  0.5058682  0.4757754  0.5327609    0.00000       Uiso       1.00
       C74          C  0.4964747  0.4803323  0.5236042    0.00000       Uiso       1.00
       C75          C  0.5423856  0.4961152  0.5133030    0.00000       Uiso       1.00
       C76          C  0.5328438  0.5002979  0.5040281    0.00000       Uiso       1.00
       C77          C  0.5097114  0.4925072  0.5088006    0.00000       Uiso       1.00
       H23          H  0.4733912  0.4565426  0.4898489    0.00000       Uiso       1.00
       H24          H  0.5252137  0.4713035  0.4673323    0.00000       Uiso       1.00
       C78          C  0.4237532  0.5074192  0.5364220    0.00000       Uiso       1.00
       C79          C  0.4008902  0.4980482  0.5405634    0.00000       Uiso       1.00
       C80          C  0.4304025  0.4347116  0.4956584    0.00000       Uiso       1.00
       C81          C  0.4075969  0.4253527  0.4995168    0.00000       Uiso       1.00
       C82          C  0.5472416  0.5762423  0.4925767    0.00000       Uiso       1.00
       C83          C  0.5565948  0.5991057  0.5019440    0.00000       Uiso       1.00
       C84          C  0.5086516  0.5695969  0.5652847    0.00000       Uiso       1.00
       C85          C  0.5182396  0.5924052  0.5746412    0.00000       Uiso       1.00
       C86          C  0.5652841  0.5043429  0.5086594    0.00000       Uiso       1.00
       C87          C  0.5746387  0.5004825  0.5182513    0.00000       Uiso       1.00
       C88          C  0.4956454  0.4913345  0.4304026    0.00000       Uiso       1.00
       C89          C  0.4995077  0.4817457  0.4075956    0.00000       Uiso       1.00
      Cl13         Cl  0.5539410  0.5644876  0.4637910    0.00000       Uiso       1.00
      Cl14         Cl  0.5745695  0.6150545  0.4845158    0.00000       Uiso       1.00
      Cl15         Cl  0.4908229  0.5536315  0.5827078    0.00000       Uiso       1.00
      Cl16         Cl  0.5119821  0.6040708  0.6033834    0.00000       Uiso       1.00
      Cl17         Cl  0.6033812  0.5113083  0.5119955    0.00000       Uiso       1.00
      Cl18         Cl  0.5827034  0.5198997  0.4908278    0.00000       Uiso       1.00
      Cl19         Cl  0.4886732  0.4879943  0.3959370    0.00000       Uiso       1.00
      Cl20         Cl  0.4800735  0.5091521  0.4463737    0.00000       Uiso       1.00
      Cl21         Cl  0.4463722  0.4172927  0.4800990    0.00000       Uiso       1.00
      Cl22         Cl  0.3959400  0.3966101  0.4886905    0.00000       Uiso       1.00
      Cl23         Cl  0.3849474  0.5154822  0.5559661    0.00000       Uiso       1.00
      Cl24         Cl  0.4355080  0.5362048  0.5467535    0.00000       Uiso       1.00
       C90          C  0.0100440  0.7135083  0.5873026    0.00000       Uiso       1.00
       C91          C  0.0084278  0.7020810  0.5985844    0.00000       Uiso       1.00
       C92          C  0.0048953  0.6791682  0.5888931    0.00000       Uiso       1.00
       C93          C  0.0084278  0.7020810  0.5662099    0.00000       Uiso       1.00
       C94          C  0.0050365  0.6792422  0.5564283    0.00000       Uiso       1.00
       C95          C  0.0030698  0.6671863  0.5675742    0.00000       Uiso       1.00
       H25          H  0.0694715  0.4596120  0.3292282    0.00000       Uiso       1.00
       H26          H  0.0097645  0.7111539  0.5567511    0.00000       Uiso       1.00
       C96          C  0.0584349  0.4127066  0.5389166    0.00000       Uiso       1.00
       C97          C  0.0697166  0.4337994  0.5373003    0.00000       Uiso       1.00
       C98          C  0.0600512  0.4435813  0.5339085    0.00000       Uiso       1.00
       C99          C  0.0373420  0.4014249  0.5373003    0.00000       Uiso       1.00
      C100          C  0.0276533  0.4111162  0.5337673    0.00000       Uiso       1.00
      C101          C  0.0388170  0.4324349  0.5319412    0.00000       Uiso       1.00
       H27          H  0.0031927  0.6707780  0.5983323    0.00000       Uiso       1.00
       H28          H  0.0869115  0.4432581  0.5386370    0.00000       Uiso       1.00
      C102          C  0.0584350  0.4127071  0.2865012    0.00000       Uiso       1.00
      C103          C  0.0373422  0.4014254  0.2979285    0.00000       Uiso       1.00
      C104          C  0.0275611  0.4110891  0.3207676    0.00000       Uiso       1.00
      C105          C  0.0697167  0.4337998  0.2979285    0.00000       Uiso       1.00
      C106          C  0.0600268  0.4434869  0.3208417    0.00000       Uiso       1.00
      C107          C  0.0387082  0.4323222  0.3328237    0.00000       Uiso       1.00
       H29          H  0.8003594  0.4679464  0.5403955    0.00000       Uiso       1.00
       H30          H  0.0278835  0.3842305  0.2888558    0.00000       Uiso       1.00
      C108          C  0.7576286  0.4610926  0.5873026    0.00000       Uiso       1.00
      C109          C  0.7690561  0.4627090  0.5662099    0.00000       Uiso       1.00
      C110          C  0.7919691  0.4662415  0.5565211    0.00000       Uiso       1.00
      C111          C  0.7690561  0.4627090  0.5985844    0.00000       Uiso       1.00
      C112          C  0.7918951  0.4660997  0.5889185    0.00000       Uiso       1.00
      C113          C  0.8039507  0.4680664  0.5676837    0.00000       Uiso       1.00
       H31          H  0.0115268  0.4016751  0.5320637    0.00000       Uiso       1.00
      C114          C  0.9711382  0.5000031  0.5000058    0.00000       Uiso       1.00
       H32          H  0.7599832  0.4613722  0.6157792    0.00000       Uiso       1.00
      Cl25         Cl  0.0104913  0.7160881  0.6251308    0.00000       Uiso       1.00
      Cl26         Cl  0.7550489  0.4606453  0.5516069    0.00000       Uiso       1.00
      Cl27         Cl  0.0962633  0.4484029  0.2839214    0.00000       Uiso       1.00
      Cl28         Cl  0.0227392  0.3748784  0.5393640    0.00000       Uiso       1.00
      Cl29         Cl  0.0037495  0.6660202  0.5295956    0.00000       Uiso       1.00
      Cl30         Cl  0.8051170  0.4673874  0.6038170    0.00000       Uiso       1.00
      Cl31         Cl  0.0749503  0.4704133  0.5326197    0.00000       Uiso       1.00
      Cl32         Cl  0.0007307  0.3961894  0.3339919    0.00000       Uiso       1.00
      C115          C  0.9990333  0.6424400  0.5571031    0.00000       Uiso       1.00
      C116          C  0.0074174  0.6321883  0.5615225    0.00000       Uiso       1.00
      C117          C  0.0035624  0.6091899  0.5519176    0.00000       Uiso       1.00
      C118          C  0.9866904  0.6287678  0.5425460    0.00000       Uiso       1.00
      C119          C  0.9828991  0.6058024  0.5326886    0.00000       Uiso       1.00
      C120          C  0.9913149  0.5959506  0.5374078    0.00000       Uiso       1.00
       H33          H  0.9796340  0.6358784  0.5390986    0.00000       Uiso       1.00
       H34          H  0.0172386  0.6421257  0.5722469    0.00000       Uiso       1.00
      C121          C  0.0285812  0.4429062  0.5279031    0.00000       Uiso       1.00
      C122          C  0.0418097  0.4574557  0.5155519    0.00000       Uiso       1.00
      C123          C  0.0324941  0.4673142  0.5117607    0.00000       Uiso       1.00
      C124          C  0.0055273  0.4384966  0.5362965    0.00000       Uiso       1.00
      C125          C  0.9959916  0.4481025  0.5324414    0.00000       Uiso       1.00
      C126          C  0.0095086  0.4626035  0.5201852    0.00000       Uiso       1.00
       H35          H  0.9949161  0.4277807  0.5461258    0.00000       Uiso       1.00
       H36          H  0.0594246  0.4608965  0.5084888    0.00000       Uiso       1.00
      C127          C  0.0282364  0.4425558  0.3575698    0.00000       Uiso       1.00
      C128          C  0.0136786  0.4293246  0.3712398    0.00000       Uiso       1.00
      C129          C  0.0038178  0.4386399  0.3942075    0.00000       Uiso       1.00
      C130          C  0.0326535  0.4656101  0.3678220    0.00000       Uiso       1.00
      C131          C  0.0230483  0.4751457  0.3908188    0.00000       Uiso       1.00
      C132          C  0.0085379  0.4616286  0.4040593    0.00000       Uiso       1.00
       H37          H  0.0433745  0.4762227  0.3578910    0.00000       Uiso       1.00
       H38          H  0.0102353  0.4117076  0.3641215    0.00000       Uiso       1.00
      C133          C  0.8286969  0.4721038  0.5574462    0.00000       Uiso       1.00
      C134          C  0.8389482  0.4637125  0.5343919    0.00000       Uiso       1.00
      C135          C  0.8619468  0.4675698  0.5248538    0.00000       Uiso       1.00
      C136          C  0.8423695  0.4844530  0.5706737    0.00000       Uiso       1.00
      C137          C  0.8653352  0.4882440  0.5613573    0.00000       Uiso       1.00
      C138          C  0.8751864  0.4798241  0.5383720    0.00000       Uiso       1.00
       H39          H  0.8352579  0.4915129  0.5882873    0.00000       Uiso       1.00
       H40          H  0.8290070  0.4538836  0.5237873    0.00000       Uiso       1.00
      C139          C  0.8720278  0.4594242  0.5019497    0.00000       Uiso       1.00
      C140          C  0.8948913  0.4635687  0.4925812    0.00000       Uiso       1.00
      C141          C  0.9730868  0.4434301  0.5405938    0.00000       Uiso       1.00
      C142          C  0.9637181  0.4527826  0.5364524    0.00000       Uiso       1.00
      Cl33         Cl  0.9066509  0.4532314  0.4637968    0.00000       Uiso       1.00
      Cl34         Cl  0.8560805  0.4440100  0.4845193    0.00000       Uiso       1.00
      Cl35         Cl  0.9349333  0.4460962  0.5467978    0.00000       Uiso       1.00
      Cl36         Cl  0.9556508  0.4254683  0.5560096    0.00000       Uiso       1.00
      C143          C  0.9873279  0.5727933  0.5277297    0.00000       Uiso       1.00
      C144          C  0.9953574  0.5628545  0.5327660    0.00000       Uiso       1.00
      C145          C  0.9908031  0.5397496  0.5236094    0.00000       Uiso       1.00
      C146          C  0.9750224  0.5595735  0.5133052    0.00000       Uiso       1.00
      C147          C  0.9708377  0.5365750  0.5040342    0.00000       Uiso       1.00
      C148          C  0.9786304  0.5260073  0.5088052    0.00000       Uiso       1.00
       H41          H  0.0145968  0.5066800  0.4898341    0.00000       Uiso       1.00
       H42          H  0.9998605  0.5212466  0.4673387    0.00000       Uiso       1.00
      C149          C  0.0000158  0.4722819  0.5161996    0.00000       Uiso       1.00
      C150          C  0.0135257  0.4867001  0.5038864    0.00000       Uiso       1.00
      C151          C  0.0039831  0.4959727  0.4997021    0.00000       Uiso       1.00
      C152          C  0.9770112  0.4672543  0.5242388    0.00000       Uiso       1.00
      C153          C  0.9676173  0.4764102  0.5196825    0.00000       Uiso       1.00
      C154          C  0.9808518  0.4912053  0.5074993    0.00000       Uiso       1.00
       H43          H  0.9963321  0.5326683  0.5287201    0.00000       Uiso       1.00
       H44          H  0.9445217  0.5101507  0.5434659    0.00000       Uiso       1.00
      C155          C  0.9988617  0.4711241  0.4272148    0.00000       Uiso       1.00
      C156          C  0.9844343  0.4576136  0.4404352    0.00000       Uiso       1.00
      C157          C  0.9751629  0.4671577  0.4634342    0.00000       Uiso       1.00
      C158          C  0.0038995  0.4941306  0.4371527    0.00000       Uiso       1.00
      C159          C  0.9947454  0.5035257  0.4602585    0.00000       Uiso       1.00
      C160          C  0.9799386  0.4902904  0.4740012    0.00000       Uiso       1.00
       H45          H  0.9384753  0.4747998  0.4787595    0.00000       Uiso       1.00
       H46          H  0.9609771  0.5266151  0.4933203    0.00000       Uiso       1.00
      C161          C  0.8983438  0.4838113  0.5288801    0.00000       Uiso       1.00
      C162          C  0.9082836  0.4757783  0.5058742    0.00000       Uiso       1.00
      C163          C  0.9313909  0.4803354  0.4964809    0.00000       Uiso       1.00
      C164          C  0.9115640  0.4961177  0.5423912    0.00000       Uiso       1.00
      C165          C  0.9345635  0.5003007  0.5328497    0.00000       Uiso       1.00
      C166          C  0.9451328  0.4925103  0.5097176    0.00000       Uiso       1.00
       H47          H  0.9644403  0.4565460  0.4733978    0.00000       Uiso       1.00
       H48          H  0.9498954  0.4713064  0.5252197    0.00000       Uiso       1.00
      C167          C  0.0183807  0.5074235  0.4237606    0.00000       Uiso       1.00
      C168          C  0.0277314  0.4980529  0.4008979    0.00000       Uiso       1.00
      C169          C  0.9797887  0.4347155  0.4304096    0.00000       Uiso       1.00
      C170          C  0.9893770  0.4253569  0.4076042    0.00000       Uiso       1.00
      C171          C  0.0075606  0.5762455  0.5472478    0.00000       Uiso       1.00
      C172          C  0.0117033  0.5991089  0.5566010    0.00000       Uiso       1.00
      C173          C  0.9667973  0.5696003  0.5086579    0.00000       Uiso       1.00
      C174          C  0.9706609  0.5924085  0.5182459    0.00000       Uiso       1.00
      C175          C  0.9015368  0.5043451  0.5652896    0.00000       Uiso       1.00
      C176          C  0.8787298  0.5004846  0.5746439    0.00000       Uiso       1.00
      C177          C  0.0364242  0.4913383  0.4956522    0.00000       Uiso       1.00
      C178          C  0.0457803  0.4817494  0.4995145    0.00000       Uiso       1.00
      Cl37         Cl  0.0178925  0.5644908  0.5539472    0.00000       Uiso       1.00
      Cl38         Cl  0.0271057  0.6150576  0.5745755    0.00000       Uiso       1.00
      Cl39         Cl  0.9512376  0.5536349  0.4908293    0.00000       Uiso       1.00
      Cl40         Cl  0.9598416  0.6040741  0.5119883    0.00000       Uiso       1.00
      Cl41         Cl  0.8670689  0.5113100  0.6033859    0.00000       Uiso       1.00
      Cl42         Cl  0.9175060  0.5199019  0.5827087    0.00000       Uiso       1.00
      Cl43         Cl  0.0745220  0.4879983  0.4886803    0.00000       Uiso       1.00
      Cl44         Cl  0.0538423  0.5091561  0.4800806    0.00000       Uiso       1.00
      Cl45         Cl  0.9619597  0.4172964  0.4463790    0.00000       Uiso       1.00
      Cl46         Cl  0.9831180  0.3966143  0.3959473    0.00000       Uiso       1.00
      Cl47         Cl  0.0457053  0.5154871  0.3849553    0.00000       Uiso       1.00
      Cl48         Cl  0.0250799  0.5362091  0.4355153    0.00000       Uiso       1.00
      C179          C  0.5872973  0.7135060  0.0100448    0.00000       Uiso       1.00
      C180          C  0.5662045  0.7020786  0.0084284    0.00000       Uiso       1.00
      C181          C  0.5565158  0.6791658  0.0048959    0.00000       Uiso       1.00
      C182          C  0.5985792  0.7020788  0.0084286    0.00000       Uiso       1.00
      C183          C  0.5889136  0.6792399  0.0050373    0.00000       Uiso       1.00
      C184          C  0.5676785  0.6671839  0.0030704    0.00000       Uiso       1.00
       H49          H  0.5320512  0.4596084  0.0694712    0.00000       Uiso       1.00
       H50          H  0.6157742  0.7111517  0.0097653    0.00000       Uiso       1.00
      C185          C  0.2864926  0.4127018  0.0584333    0.00000       Uiso       1.00
      C186          C  0.2979200  0.4337945  0.0697149    0.00000       Uiso       1.00
      C187          C  0.3207589  0.4435766  0.0600498    0.00000       Uiso       1.00
      C188          C  0.2979202  0.4014202  0.0373406    0.00000       Uiso       1.00
      C189          C  0.3208332  0.4111119  0.0276521    0.00000       Uiso       1.00
      C190          C  0.3328142  0.4324304  0.0388158    0.00000       Uiso       1.00
       H51          H  0.5403889  0.6707755  0.0031932    0.00000       Uiso       1.00
       H52          H  0.2888469  0.4432530  0.0869096    0.00000       Uiso       1.00
      C191          C  0.5389104  0.4127037  0.0584349    0.00000       Uiso       1.00
      C192          C  0.5372942  0.4014221  0.0373422    0.00000       Uiso       1.00
      C193          C  0.5338998  0.4110860  0.0275612    0.00000       Uiso       1.00
      C194          C  0.5372940  0.4337963  0.0697164    0.00000       Uiso       1.00
      C195          C  0.5337575  0.4434834  0.0600266    0.00000       Uiso       1.00
      C196          C  0.5319294  0.4323189  0.0387082    0.00000       Uiso       1.00
       H53          H  0.5983286  0.4679446  0.8003608    0.00000       Uiso       1.00
       H54          H  0.5386310  0.3842273  0.0278836    0.00000       Uiso       1.00
      C197          C  0.5872982  0.4610912  0.7576303    0.00000       Uiso       1.00
      C198          C  0.5985799  0.4627075  0.7690578    0.00000       Uiso       1.00
      C199          C  0.5888883  0.4662398  0.7919705    0.00000       Uiso       1.00
      C200          C  0.5662051  0.4627073  0.7690576    0.00000       Uiso       1.00
      C201          C  0.5564228  0.4660978  0.7918963    0.00000       Uiso       1.00
      C202          C  0.5675689  0.4680644  0.8039519    0.00000       Uiso       1.00
       H55          H  0.3292224  0.4016710  0.0115258    0.00000       Uiso       1.00
      C203          C  0.4999961  0.4999990  0.9711373    0.00000       Uiso       1.00
       H56          H  0.5567464  0.4613706  0.7599846    0.00000       Uiso       1.00
      Cl49         Cl  0.5516014  0.7160856  0.0104918    0.00000       Uiso       1.00
      Cl50         Cl  0.6251267  0.4606442  0.7550508    0.00000       Uiso       1.00
      Cl51         Cl  0.5393574  0.4483990  0.0962628    0.00000       Uiso       1.00
      Cl52         Cl  0.2839130  0.3748738  0.0227378    0.00000       Uiso       1.00
      Cl53         Cl  0.6038116  0.6660180  0.0037504    0.00000       Uiso       1.00
      Cl54         Cl  0.5295901  0.4673852  0.8051178    0.00000       Uiso       1.00
      Cl55         Cl  0.3339805  0.4704086  0.0749489    0.00000       Uiso       1.00
      Cl56         Cl  0.5326061  0.3961864  0.0007310    0.00000       Uiso       1.00
      C204          C  0.5574393  0.6424363  0.9990327    0.00000       Uiso       1.00
      C205          C  0.5343847  0.6321855  0.0074178    0.00000       Uiso       1.00
      C206          C  0.5248464  0.6091872  0.0035628    0.00000       Uiso       1.00
      C207          C  0.5706675  0.6287643  0.9866899    0.00000       Uiso       1.00
      C208          C  0.5613508  0.6057987  0.9828986    0.00000       Uiso       1.00
      C209          C  0.5383642  0.5959467  0.9913142    0.00000       Uiso       1.00
       H57          H  0.5882819  0.6358751  0.9796337    0.00000       Uiso       1.00
       H58          H  0.5237764  0.6421229  0.0172389    0.00000       Uiso       1.00
      C210          C  0.3575594  0.4429021  0.0285803    0.00000       Uiso       1.00
      C211          C  0.3712316  0.4574515  0.0418088    0.00000       Uiso       1.00
      C212          C  0.3941970  0.4673103  0.0324933    0.00000       Uiso       1.00
      C213          C  0.3678103  0.4384928  0.0055267    0.00000       Uiso       1.00
      C214          C  0.3908064  0.4480976  0.9959899    0.00000       Uiso       1.00
      C215          C  0.4040473  0.4625999  0.0095081    0.00000       Uiso       1.00
       H59          H  0.3578757  0.4277755  0.9949143    0.00000       Uiso       1.00
       H60          H  0.3641207  0.4608921  0.0594234    0.00000       Uiso       1.00
      C216          C  0.5278885  0.4425526  0.0282364    0.00000       Uiso       1.00
      C217          C  0.5155450  0.4293214  0.0136788    0.00000       Uiso       1.00
      C218          C  0.5117531  0.4386369  0.0038181    0.00000       Uiso       1.00
      C219          C  0.5362732  0.4656069  0.0326536    0.00000       Uiso       1.00
      C220          C  0.5324171  0.4751426  0.0230484    0.00000       Uiso       1.00
      C221          C  0.5201699  0.4616256  0.0085381    0.00000       Uiso       1.00
       H61          H  0.5460958  0.4762194  0.0433745    0.00000       Uiso       1.00
       H62          H  0.5084897  0.4117044  0.0102354    0.00000       Uiso       1.00
      C222          C  0.5570975  0.4721015  0.8286978    0.00000       Uiso       1.00
      C223          C  0.5615096  0.4637101  0.8389489    0.00000       Uiso       1.00
      C224          C  0.5519063  0.4675671  0.8619474    0.00000       Uiso       1.00
      C225          C  0.5425465  0.4844505  0.8423702    0.00000       Uiso       1.00
      C226          C  0.5326883  0.4882412  0.8653356    0.00000       Uiso       1.00
      C227          C  0.5374026  0.4798212  0.8751867    0.00000       Uiso       1.00
       H63          H  0.5391042  0.4915105  0.8352586    0.00000       Uiso       1.00
       H64          H  0.5722266  0.4538814  0.8290079    0.00000       Uiso       1.00
      C228          C  0.5565840  0.4594214  0.8720283    0.00000       Uiso       1.00
      C229          C  0.5472335  0.4635657  0.8948916    0.00000       Uiso       1.00
      C230          C  0.4008866  0.4434254  0.9730852    0.00000       Uiso       1.00
      C231          C  0.4237491  0.4527782  0.9637169    0.00000       Uiso       1.00
      Cl57         Cl  0.5539213  0.4532283  0.9066510    0.00000       Uiso       1.00
      Cl58         Cl  0.5745478  0.4440075  0.8560812    0.00000       Uiso       1.00
      Cl59         Cl  0.4355021  0.4460921  0.9349324    0.00000       Uiso       1.00
      Cl60         Cl  0.3849449  0.4254637  0.9556494    0.00000       Uiso       1.00
      C232          C  0.5288721  0.5727894  0.9873272    0.00000       Uiso       1.00
      C233          C  0.5058674  0.5628504  0.9953565    0.00000       Uiso       1.00
      C234          C  0.4964737  0.5397454  0.9908021    0.00000       Uiso       1.00
      C235          C  0.5423824  0.5595698  0.9750219    0.00000       Uiso       1.00
      C236          C  0.5328400  0.5365713  0.9708371    0.00000       Uiso       1.00
      C237          C  0.5097086  0.5260033  0.9786295    0.00000       Uiso       1.00
       H65          H  0.4733866  0.5066767  0.0145967    0.00000       Uiso       1.00
       H66          H  0.5251846  0.5212424  0.9998596    0.00000       Uiso       1.00
      C238          C  0.4272040  0.4722784  0.0000155    0.00000       Uiso       1.00
      C239          C  0.4404255  0.4866966  0.0135254    0.00000       Uiso       1.00
      C240          C  0.4634251  0.4959695  0.0039830    0.00000       Uiso       1.00
      C241          C  0.4371413  0.4672499  0.9770100    0.00000       Uiso       1.00
      C242          C  0.4602474  0.4764060  0.9676163    0.00000       Uiso       1.00
      C243          C  0.4739912  0.4912011  0.9808508    0.00000       Uiso       1.00
       H67          H  0.4787528  0.5326640  0.9963309    0.00000       Uiso       1.00
       H68          H  0.4932997  0.5101469  0.9445211    0.00000       Uiso       1.00
      C244          C  0.5161853  0.4711199  0.9988607    0.00000       Uiso       1.00
      C245          C  0.5038818  0.4576095  0.9844334    0.00000       Uiso       1.00
      C246          C  0.4996981  0.4671536  0.9751620    0.00000       Uiso       1.00
      C247          C  0.5242164  0.4941277  0.0038998    0.00000       Uiso       1.00
      C248          C  0.5196592  0.5035216  0.9947445    0.00000       Uiso       1.00
      C249          C  0.5074880  0.4902864  0.9799377    0.00000       Uiso       1.00
       H69          H  0.5287023  0.4747963  0.9384750    0.00000       Uiso       1.00
       H70          H  0.5434547  0.5266114  0.9609766    0.00000       Uiso       1.00
      C250          C  0.5277244  0.4838082  0.8983439    0.00000       Uiso       1.00
      C251          C  0.5327576  0.4757750  0.9082836    0.00000       Uiso       1.00
      C252          C  0.5236008  0.4803319  0.9313906    0.00000       Uiso       1.00
      C253          C  0.5132992  0.4961144  0.9115638    0.00000       Uiso       1.00
      C254          C  0.5040243  0.5002971  0.9345630    0.00000       Uiso       1.00
      C255          C  0.5087970  0.4925067  0.9451323    0.00000       Uiso       1.00
       H71          H  0.4898454  0.4565420  0.9644395    0.00000       Uiso       1.00
       H72          H  0.4673283  0.4713024  0.9498945    0.00000       Uiso       1.00
      C256          C  0.5364202  0.5074205  0.0183810    0.00000       Uiso       1.00
      C257          C  0.5405618  0.4980498  0.0277316    0.00000       Uiso       1.00
      C258          C  0.4956552  0.4347114  0.9797877    0.00000       Uiso       1.00
      C259          C  0.4995138  0.4253526  0.9893760    0.00000       Uiso       1.00
      C260          C  0.4925738  0.5762424  0.0075608    0.00000       Uiso       1.00
      C261          C  0.5019411  0.5991059  0.0117035    0.00000       Uiso       1.00
      C262          C  0.5652816  0.5695968  0.9667970    0.00000       Uiso       1.00
      C263          C  0.5746381  0.5924050  0.9706606    0.00000       Uiso       1.00
      C264          C  0.5086554  0.5043419  0.9015366    0.00000       Uiso       1.00
      C265          C  0.5182474  0.5004816  0.8787300    0.00000       Uiso       1.00
      C266          C  0.4303994  0.4913345  0.0364237    0.00000       Uiso       1.00
      C267          C  0.4075921  0.4817454  0.0457795    0.00000       Uiso       1.00
      Cl61         Cl  0.4637878  0.5644875  0.0178924    0.00000       Uiso       1.00
      Cl62         Cl  0.4845126  0.6150544  0.0271056    0.00000       Uiso       1.00
      Cl63         Cl  0.5827050  0.5536317  0.9512375    0.00000       Uiso       1.00
      Cl64         Cl  0.6033807  0.6040710  0.9598415    0.00000       Uiso       1.00
      Cl65         Cl  0.5119914  0.5113071  0.8670691    0.00000       Uiso       1.00
      Cl66         Cl  0.4908236  0.5198984  0.9175056    0.00000       Uiso       1.00
      Cl67         Cl  0.3959335  0.4879940  0.0745209    0.00000       Uiso       1.00
      Cl68         Cl  0.4463707  0.5091523  0.0538417    0.00000       Uiso       1.00
      Cl69         Cl  0.4800956  0.4172923  0.9619588    0.00000       Uiso       1.00
      Cl70         Cl  0.4886875  0.3966100  0.9831169    0.00000       Uiso       1.00
      Cl71         Cl  0.5559647  0.5154840  0.0457054    0.00000       Uiso       1.00
      Cl72         Cl  0.5467517  0.5362062  0.0250801    0.00000       Uiso       1.00
      C268          C  0.5872963  0.8838338  0.0100436    0.00000       Uiso       1.00
      C269          C  0.5985779  0.9049265  0.0084273    0.00000       Uiso       1.00
      C270          C  0.5888864  0.9146152  0.0048945    0.00000       Uiso       1.00
      C271          C  0.5662034  0.8725520  0.0084273    0.00000       Uiso       1.00
      C272          C  0.5564215  0.8822176  0.0050357    0.00000       Uiso       1.00
      C273          C  0.5675673  0.9034526  0.0030688    0.00000       Uiso       1.00
       H73          H  0.3292171  0.9390788  0.0694665    0.00000       Uiso       1.00
       H74          H  0.5567448  0.8553572  0.0097640    0.00000       Uiso       1.00
      C274          C  0.5389051  0.1846359  0.0584297    0.00000       Uiso       1.00
      C275          C  0.5372888  0.1732085  0.0697114    0.00000       Uiso       1.00
      C276          C  0.5338973  0.1503699  0.0600464    0.00000       Uiso       1.00
      C277          C  0.5372889  0.1732086  0.0373370    0.00000       Uiso       1.00
      C278          C  0.5337562  0.1502958  0.0276485    0.00000       Uiso       1.00
      C279          C  0.5319301  0.1383148  0.0388123    0.00000       Uiso       1.00
       H75          H  0.5983256  0.9307420  0.0031918    0.00000       Uiso       1.00
       H76          H  0.5386255  0.1822813  0.0869063    0.00000       Uiso       1.00
      C280          C  0.2864896  0.9322197  0.0584296    0.00000       Uiso       1.00
      C281          C  0.2979171  0.9338361  0.0373369    0.00000       Uiso       1.00
      C282          C  0.3207564  0.9372306  0.0275561    0.00000       Uiso       1.00
      C283          C  0.2979170  0.9338360  0.0697113    0.00000       Uiso       1.00
      C284          C  0.3208305  0.9373726  0.0600218    0.00000       Uiso       1.00
      C285          C  0.3328127  0.9392009  0.0387033    0.00000       Uiso       1.00
       H77          H  0.5403877  0.8728021  0.8003576    0.00000       Uiso       1.00
       H78          H  0.2888442  0.9324994  0.0278781    0.00000       Uiso       1.00
      C286          C  0.5872955  0.8838329  0.7576274    0.00000       Uiso       1.00
      C287          C  0.5662025  0.8725511  0.7690548    0.00000       Uiso       1.00
      C288          C  0.5565134  0.8822424  0.7919675    0.00000       Uiso       1.00
      C289          C  0.5985771  0.9049256  0.7690548    0.00000       Uiso       1.00
      C290          C  0.5889109  0.9147076  0.7918934    0.00000       Uiso       1.00
      C291          C  0.5676759  0.9035616  0.8039489    0.00000       Uiso       1.00
       H79          H  0.5320527  0.1419069  0.0115221    0.00000       Uiso       1.00
      C292          C  0.4999960  0.9711323  0.9711341    0.00000       Uiso       1.00
       H80          H  0.6157721  0.9143844  0.7599820    0.00000       Uiso       1.00
      Cl73         Cl  0.6251246  0.9195295  0.0104909    0.00000       Uiso       1.00
      Cl74         Cl  0.5515997  0.8460047  0.7550477    0.00000       Uiso       1.00
      Cl75         Cl  0.2839097  0.9317724  0.0962578    0.00000       Uiso       1.00
      Cl76         Cl  0.5393524  0.1872157  0.0227340    0.00000       Uiso       1.00
      Cl77         Cl  0.5295886  0.8673198  0.0037485    0.00000       Uiso       1.00
      Cl78         Cl  0.6038092  0.9415401  0.8051151    0.00000       Uiso       1.00
      Cl79         Cl  0.5326087  0.1371482  0.0749457    0.00000       Uiso       1.00
      Cl80         Cl  0.3339809  0.9385245  0.0007259    0.00000       Uiso       1.00
      C293          C  0.5570949  0.9136893  0.9990309    0.00000       Uiso       1.00
      C294          C  0.5615150  0.9367460  0.0074159    0.00000       Uiso       1.00
      C295          C  0.5519099  0.9462843  0.0035607    0.00000       Uiso       1.00
      C296          C  0.5425377  0.9004613  0.9866878    0.00000       Uiso       1.00
      C297          C  0.5326800  0.9097779  0.9828964    0.00000       Uiso       1.00
      C298          C  0.5373989  0.9327643  0.9913118    0.00000       Uiso       1.00
       H81          H  0.5390905  0.8828471  0.9796317    0.00000       Uiso       1.00
       H82          H  0.5722395  0.9473542  0.0172372    0.00000       Uiso       1.00
      C299          C  0.5278924  0.1135700  0.0285768    0.00000       Uiso       1.00
      C300          C  0.5155412  0.0998978  0.0418054    0.00000       Uiso       1.00
      C301          C  0.5117502  0.0769326  0.0324900    0.00000       Uiso       1.00
      C302          C  0.5362861  0.1033193  0.0055232    0.00000       Uiso       1.00
      C303          C  0.5324303  0.0803212  0.9959866    0.00000       Uiso       1.00
      C304          C  0.5201749  0.0670826  0.0095048    0.00000       Uiso       1.00
       H83          H  0.5461143  0.1132516  0.9949108    0.00000       Uiso       1.00
       H84          H  0.5084777  0.1070084  0.0594199    0.00000       Uiso       1.00
      C305          C  0.3575591  0.9432418  0.0282318    0.00000       Uiso       1.00
      C306          C  0.3712292  0.9555854  0.0136742    0.00000       Uiso       1.00
      C307          C  0.3941972  0.9593772  0.0038137    0.00000       Uiso       1.00
      C308          C  0.3678116  0.9348571  0.0326492    0.00000       Uiso       1.00
      C309          C  0.3908087  0.9387134  0.0230443    0.00000       Uiso       1.00
      C310          C  0.4040492  0.9509606  0.0085339    0.00000       Uiso       1.00
       H85          H  0.3578805  0.9250345  0.0433702    0.00000       Uiso       1.00
       H86          H  0.3641107  0.9626406  0.0102307    0.00000       Uiso       1.00
      C311          C  0.5574381  0.9140326  0.8286948    0.00000       Uiso       1.00
      C312          C  0.5343835  0.9096205  0.8389457    0.00000       Uiso       1.00
      C313          C  0.5248451  0.9192234  0.8619440    0.00000       Uiso       1.00
      C314          C  0.5706656  0.9285834  0.8423673    0.00000       Uiso       1.00
      C315          C  0.5613489  0.9384414  0.8653327    0.00000       Uiso       1.00
      C316          C  0.5383633  0.9337270  0.8751837    0.00000       Uiso       1.00
       H87          H  0.5882794  0.9320258  0.8352560    0.00000       Uiso       1.00
       H88          H  0.5237789  0.8989036  0.8290045    0.00000       Uiso       1.00
      C317          C  0.5019407  0.9145458  0.8720248    0.00000       Uiso       1.00
      C318          C  0.4925719  0.9238960  0.8948880    0.00000       Uiso       1.00
      C319          C  0.5405828  0.0702413  0.9730819    0.00000       Uiso       1.00
      C320          C  0.5364417  0.0473791  0.9637136    0.00000       Uiso       1.00
      Cl81         Cl  0.4637872  0.9172081  0.9066472    0.00000       Uiso       1.00
      Cl82         Cl  0.4845103  0.8965822  0.8560774    0.00000       Uiso       1.00
      Cl83         Cl  0.5467874  0.0356264  0.9349291    0.00000       Uiso       1.00
      Cl84         Cl  0.5559987  0.0861830  0.9556460    0.00000       Uiso       1.00
      C321          C  0.5277206  0.9422564  0.9873246    0.00000       Uiso       1.00
      C322          C  0.5327567  0.9652608  0.9953539    0.00000       Uiso       1.00
      C323          C  0.5235998  0.9746545  0.9907994    0.00000       Uiso       1.00
      C324          C  0.5132961  0.9287463  0.9750192    0.00000       Uiso       1.00
      C325          C  0.5040249  0.9382886  0.9708341    0.00000       Uiso       1.00
      C326          C  0.5087956  0.9614198  0.9786266    0.00000       Uiso       1.00
       H89          H  0.4898247  0.9977435  0.0145935    0.00000       Uiso       1.00
       H90          H  0.4673286  0.9459437  0.9998563    0.00000       Uiso       1.00
      C327          C  0.5161897  0.0439262  0.0000122    0.00000       Uiso       1.00
      C328          C  0.5038764  0.0307047  0.0135221    0.00000       Uiso       1.00
      C329          C  0.4996924  0.0077054  0.0039798    0.00000       Uiso       1.00
      C330          C  0.5242282  0.0339868  0.9770066    0.00000       Uiso       1.00
      C331          C  0.5196720  0.0108810  0.9676130    0.00000       Uiso       1.00
      C332          C  0.5074891  0.9971368  0.9808475    0.00000       Uiso       1.00
       H91          H  0.5287104  0.9923753  0.9963282    0.00000       Uiso       1.00
       H92          H  0.5434566  0.9778288  0.9445182    0.00000       Uiso       1.00
      C333          C  0.4272040  0.9549429  0.9988568    0.00000       Uiso       1.00
      C334          C  0.4404245  0.9672465  0.9844295    0.00000       Uiso       1.00
      C335          C  0.4634237  0.9714302  0.9751583    0.00000       Uiso       1.00
      C336          C  0.4371432  0.9469142  0.0038961    0.00000       Uiso       1.00
      C337          C  0.4602482  0.9514692  0.9947410    0.00000       Uiso       1.00
      C338          C  0.4739910  0.9636403  0.9799343    0.00000       Uiso       1.00
       H93          H  0.4787497  0.9424266  0.9384715    0.00000       Uiso       1.00
       H94          H  0.4933109  0.9276741  0.9609735    0.00000       Uiso       1.00
      C339          C  0.5288711  0.9434049  0.8983408    0.00000       Uiso       1.00
      C340          C  0.5058649  0.9383716  0.9082803    0.00000       Uiso       1.00
      C341          C  0.4964713  0.9475281  0.9313872    0.00000       Uiso       1.00
      C342          C  0.5423823  0.9578298  0.9115609    0.00000       Uiso       1.00
      C343          C  0.5328404  0.9671044  0.9345601    0.00000       Uiso       1.00
      C344          C  0.5097080  0.9623317  0.9451291    0.00000       Uiso       1.00
       H95          H  0.4733874  0.9812829  0.9644358    0.00000       Uiso       1.00
       H96          H  0.5252094  0.0038004  0.9498914    0.00000       Uiso       1.00
      C345          C  0.4237510  0.9347103  0.0183773    0.00000       Uiso       1.00
      C346          C  0.4008880  0.9305686  0.0277277    0.00000       Uiso       1.00
      C347          C  0.4303986  0.9754730  0.9797836    0.00000       Uiso       1.00
      C348          C  0.4075929  0.9716144  0.9893716    0.00000       Uiso       1.00
      C349          C  0.5472395  0.9785566  0.0075584    0.00000       Uiso       1.00
      C350          C  0.5565931  0.9691893  0.0117013    0.00000       Uiso       1.00
      C351          C  0.5086491  0.9058473  0.9667943    0.00000       Uiso       1.00
      C352          C  0.5182373  0.8964909  0.9706581    0.00000       Uiso       1.00
      C353          C  0.5652809  0.9624736  0.9015339    0.00000       Uiso       1.00
      C354          C  0.5746354  0.9528819  0.8787273    0.00000       Uiso       1.00
      C355          C  0.4956419  0.0407305  0.0364203    0.00000       Uiso       1.00
      C356          C  0.4995040  0.0635375  0.0457762    0.00000       Uiso       1.00
      Cl85         Cl  0.5539383  0.0073425  0.0178900    0.00000       Uiso       1.00
      Cl86         Cl  0.5745676  0.9866175  0.0271037    0.00000       Uiso       1.00
      Cl87         Cl  0.4908204  0.8884243  0.9512345    0.00000       Uiso       1.00
      Cl88         Cl  0.5119801  0.8677487  0.9598391    0.00000       Uiso       1.00
      Cl89         Cl  0.6033779  0.9591380  0.8670667    0.00000       Uiso       1.00
      Cl90         Cl  0.5827000  0.9803053  0.9175031    0.00000       Uiso       1.00
      Cl91         Cl  0.4886694  0.0751957  0.0745175    0.00000       Uiso       1.00
      Cl92         Cl  0.4800703  0.0247591  0.0538384    0.00000       Uiso       1.00
      Cl93         Cl  0.4463681  0.9910327  0.9619547    0.00000       Uiso       1.00
      Cl94         Cl  0.3959357  0.9824407  0.9831122    0.00000       Uiso       1.00
      Cl95         Cl  0.3849455  0.9151657  0.0457015    0.00000       Uiso       1.00
      Cl96         Cl  0.4355061  0.9243789  0.0250767    0.00000       Uiso       1.00
      C357          C  0.0100430  0.8838361  0.5873015    0.00000       Uiso       1.00
      C358          C  0.0084267  0.8725545  0.5662088    0.00000       Uiso       1.00
      C359          C  0.0048940  0.8822458  0.5565199    0.00000       Uiso       1.00
      C360          C  0.0084265  0.9049287  0.5985830    0.00000       Uiso       1.00
      C361          C  0.0050350  0.9147104  0.5889173    0.00000       Uiso       1.00
      C362          C  0.0030683  0.9035646  0.5676823    0.00000       Uiso       1.00
       H97          H  0.0694665  0.1419118  0.5320528    0.00000       Uiso       1.00
       H98          H  0.0097631  0.9143873  0.6157779    0.00000       Uiso       1.00
      C363          C  0.0584319  0.9322249  0.2864974    0.00000       Uiso       1.00
      C364          C  0.0697136  0.9338412  0.2979248    0.00000       Uiso       1.00
      C365          C  0.0600483  0.9372328  0.3207636    0.00000       Uiso       1.00
      C366          C  0.0373389  0.9338410  0.2979246    0.00000       Uiso       1.00
      C367          C  0.0276501  0.9373737  0.3208374    0.00000       Uiso       1.00
      C368          C  0.0388140  0.9392000  0.3328186    0.00000       Uiso       1.00
       H99          H  0.0031915  0.8728067  0.5403932    0.00000       Uiso       1.00
      H100          H  0.0869086  0.9325047  0.2888521    0.00000       Uiso       1.00
      C369          C  0.0584294  0.1846387  0.5389113    0.00000       Uiso       1.00
      C370          C  0.0373366  0.1732112  0.5372949    0.00000       Uiso       1.00
      C371          C  0.0275558  0.1503721  0.5339007    0.00000       Uiso       1.00
      C372          C  0.0697113  0.1732115  0.5372952    0.00000       Uiso       1.00
      C373          C  0.0600217  0.1502983  0.5337589    0.00000       Uiso       1.00
      C374          C  0.0387031  0.1383161  0.5319306    0.00000       Uiso       1.00
      H101          H  0.8003564  0.9307417  0.5983301    0.00000       Uiso       1.00
      H102          H  0.0278777  0.1822840  0.5386315    0.00000       Uiso       1.00
      C375          C  0.7576259  0.8838344  0.5872998    0.00000       Uiso       1.00
      C376          C  0.7690533  0.9049270  0.5985813    0.00000       Uiso       1.00
      C377          C  0.7919662  0.9146161  0.5888900    0.00000       Uiso       1.00
      C378          C  0.7690535  0.8725529  0.5662071    0.00000       Uiso       1.00
      C379          C  0.7918925  0.8822190  0.5564250    0.00000       Uiso       1.00
      C380          C  0.8039480  0.9034537  0.5675709    0.00000       Uiso       1.00
      H103          H  0.0115235  0.9390771  0.3292263    0.00000       Uiso       1.00
      C381          C  0.9711351  0.9711334  0.4999997    0.00000       Uiso       1.00
      H104          H  0.7599807  0.8553580  0.5567484    0.00000       Uiso       1.00
      Cl97         Cl  0.0104906  0.8460082  0.5516061    0.00000       Uiso       1.00
      Cl98         Cl  0.7550458  0.9195297  0.6251277    0.00000       Uiso       1.00
      Cl99         Cl  0.0962579  0.1872188  0.5393589    0.00000       Uiso       1.00
     Cl100         Cl  0.0227359  0.9317774  0.2839173    0.00000       Uiso       1.00
     Cl101         Cl  0.0037477  0.9415430  0.6038148    0.00000       Uiso       1.00
     Cl102         Cl  0.8051145  0.8673207  0.5295926    0.00000       Uiso       1.00
     Cl103         Cl  0.0749476  0.9385216  0.3339854    0.00000       Uiso       1.00
     Cl104         Cl  0.0007253  0.1371476  0.5326068    0.00000       Uiso       1.00
      C382          C  0.9990317  0.9140358  0.5574440    0.00000       Uiso       1.00
      C383          C  0.0074157  0.9096166  0.5343886    0.00000       Uiso       1.00
      C384          C  0.0035605  0.9192216  0.5248501    0.00000       Uiso       1.00
      C385          C  0.9866884  0.9285926  0.5706717    0.00000       Uiso       1.00
      C386          C  0.9828970  0.9384502  0.5613549    0.00000       Uiso       1.00
      C387          C  0.9913127  0.9337313  0.5383686    0.00000       Uiso       1.00
      H105          H  0.9796320  0.9320399  0.5882860    0.00000       Uiso       1.00
      H106          H  0.0172370  0.8988923  0.5237805    0.00000       Uiso       1.00
      C388          C  0.0285782  0.9432377  0.3575634    0.00000       Uiso       1.00
      C389          C  0.0418067  0.9555888  0.3712356    0.00000       Uiso       1.00
      C390          C  0.0324911  0.9593799  0.3942008    0.00000       Uiso       1.00
      C391          C  0.0055243  0.9348440  0.3678142    0.00000       Uiso       1.00
      C392          C  0.9959887  0.9386988  0.3908111    0.00000       Uiso       1.00
      C393          C  0.0095056  0.9509551  0.4040509    0.00000       Uiso       1.00
      H107          H  0.9949132  0.9250147  0.3578806    0.00000       Uiso       1.00
      H108          H  0.0594215  0.9626522  0.3641249    0.00000       Uiso       1.00
      C394          C  0.0282315  0.1135700  0.5278900    0.00000       Uiso       1.00
      C395          C  0.0136738  0.0999000  0.5155464    0.00000       Uiso       1.00
      C396          C  0.0038133  0.0769322  0.5117548    0.00000       Uiso       1.00
      C397          C  0.0326488  0.1033177  0.5362749    0.00000       Uiso       1.00
      C398          C  0.0230439  0.0803209  0.5324188    0.00000       Uiso       1.00
      C399          C  0.0085335  0.0670804  0.5201716    0.00000       Uiso       1.00
      H109          H  0.0433698  0.1132488  0.5460975    0.00000       Uiso       1.00
      H110          H  0.0102303  0.1070183  0.5084910    0.00000       Uiso       1.00
      C400          C  0.8286942  0.9136915  0.5570998    0.00000       Uiso       1.00
      C401          C  0.8389451  0.9367459  0.5615117    0.00000       Uiso       1.00
      C402          C  0.8619438  0.9462842  0.5519087    0.00000       Uiso       1.00
      C403          C  0.8423669  0.9004642  0.5425492    0.00000       Uiso       1.00
      C404          C  0.8653325  0.9097809  0.5326911    0.00000       Uiso       1.00
      C405          C  0.8751836  0.9327663  0.5374053    0.00000       Uiso       1.00
      H111          H  0.8352555  0.8828506  0.5391070    0.00000       Uiso       1.00
      H112          H  0.8290038  0.9473503  0.5722284    0.00000       Uiso       1.00
      C406          C  0.8720245  0.9691883  0.5565861    0.00000       Uiso       1.00
      C407          C  0.8948880  0.9785571  0.5472358    0.00000       Uiso       1.00
      C408          C  0.9730837  0.9305463  0.4008910    0.00000       Uiso       1.00
      C409          C  0.9637151  0.9346874  0.4237532    0.00000       Uiso       1.00
     Cl105         Cl  0.9066468  0.0073418  0.5539234    0.00000       Uiso       1.00
     Cl106         Cl  0.8560770  0.9866185  0.5745495    0.00000       Uiso       1.00
     Cl107         Cl  0.9349303  0.9243416  0.4355060    0.00000       Uiso       1.00
     Cl108         Cl  0.9556478  0.9151304  0.3849493    0.00000       Uiso       1.00
      C410          C  0.9873255  0.9434093  0.5288763    0.00000       Uiso       1.00
      C411          C  0.9953551  0.9383733  0.5058718    0.00000       Uiso       1.00
      C412          C  0.9908006  0.9475300  0.4964779    0.00000       Uiso       1.00
      C413          C  0.9750199  0.9578336  0.5423862    0.00000       Uiso       1.00
      C414          C  0.9708349  0.9671047  0.5328436    0.00000       Uiso       1.00
      C415          C  0.9786276  0.9623340  0.5097124    0.00000       Uiso       1.00
      H113          H  0.0145938  0.9813056  0.4733897    0.00000       Uiso       1.00
      H114          H  0.9998569  0.0038009  0.5251881    0.00000       Uiso       1.00
      C416          C  0.0000128  0.9549404  0.4272073    0.00000       Uiso       1.00
      C417          C  0.0135226  0.9672536  0.4404289    0.00000       Uiso       1.00
      C418          C  0.0039801  0.9714376  0.4634282    0.00000       Uiso       1.00
      C419          C  0.9770082  0.9469009  0.4371455    0.00000       Uiso       1.00
      C420          C  0.9676143  0.9514570  0.4602513    0.00000       Uiso       1.00
      C421          C  0.9808488  0.9636402  0.4739951    0.00000       Uiso       1.00
      H115          H  0.9963295  0.9424194  0.4787571    0.00000       Uiso       1.00
      H116          H  0.9445190  0.9276732  0.4933036    0.00000       Uiso       1.00
      C422          C  0.9988576  0.0439249  0.5161884    0.00000       Uiso       1.00
      C423          C  0.9844303  0.0307044  0.5038848    0.00000       Uiso       1.00
      C424          C  0.9751590  0.0077054  0.4997013    0.00000       Uiso       1.00
      C425          C  0.0038956  0.0339869  0.5242186    0.00000       Uiso       1.00
      C426          C  0.9947418  0.0108811  0.5196625    0.00000       Uiso       1.00
      C427          C  0.9799353  0.9971380  0.5074914    0.00000       Uiso       1.00
      H117          H  0.9384720  0.9923792  0.5287051    0.00000       Uiso       1.00
      H118          H  0.9609742  0.9778185  0.5434580    0.00000       Uiso       1.00
      C428          C  0.8983409  0.9422584  0.5277274    0.00000       Uiso       1.00
      C429          C  0.9082805  0.9652643  0.5327604    0.00000       Uiso       1.00
      C430          C  0.9313877  0.9746578  0.5236038    0.00000       Uiso       1.00
      C431          C  0.9115613  0.9287474  0.5133026    0.00000       Uiso       1.00
      C432          C  0.9345607  0.9382892  0.5040279    0.00000       Uiso       1.00
      C433          C  0.9451298  0.9614214  0.5088003    0.00000       Uiso       1.00
      H119          H  0.9644368  0.9977415  0.4898486    0.00000       Uiso       1.00
      H120          H  0.9498925  0.9459196  0.4673320    0.00000       Uiso       1.00
      C434          C  0.0183767  0.0473790  0.5364224    0.00000       Uiso       1.00
      C435          C  0.0277272  0.0702418  0.5405638    0.00000       Uiso       1.00
      C436          C  0.9797844  0.0407301  0.4956580    0.00000       Uiso       1.00
      C437          C  0.9893725  0.0635355  0.4995165    0.00000       Uiso       1.00
      C438          C  0.0075585  0.9238917  0.4925775    0.00000       Uiso       1.00
      C439          C  0.0117014  0.9145384  0.5019450    0.00000       Uiso       1.00
      C440          C  0.9667948  0.9624807  0.5652852    0.00000       Uiso       1.00
      C441          C  0.9706586  0.9528927  0.5746418    0.00000       Uiso       1.00
      C442          C  0.9015343  0.9058491  0.5086589    0.00000       Uiso       1.00
      C443          C  0.8787274  0.8964945  0.5182507    0.00000       Uiso       1.00
      C444          C  0.0364212  0.9754880  0.4304030    0.00000       Uiso       1.00
      C445          C  0.0457773  0.9716260  0.4075960    0.00000       Uiso       1.00
     Cl109         Cl  0.0178904  0.9171926  0.4637919    0.00000       Uiso       1.00
     Cl110         Cl  0.0271040  0.8965641  0.4845170    0.00000       Uiso       1.00
     Cl111         Cl  0.9512348  0.9803091  0.5827080    0.00000       Uiso       1.00
     Cl112         Cl  0.9598392  0.9591499  0.6033841    0.00000       Uiso       1.00
     Cl113         Cl  0.8670667  0.8677524  0.5119949    0.00000       Uiso       1.00
     Cl114         Cl  0.9175037  0.8884302  0.4908275    0.00000       Uiso       1.00
     Cl115         Cl  0.0745190  0.9824606  0.3959377    0.00000       Uiso       1.00
     Cl116         Cl  0.0538393  0.9910596  0.4463743    0.00000       Uiso       1.00
     Cl117         Cl  0.9619554  0.0247607  0.4800984    0.00000       Uiso       1.00
     Cl118         Cl  0.9831132  0.0751924  0.4886899    0.00000       Uiso       1.00
     Cl119         Cl  0.0457011  0.0861843  0.5559667    0.00000       Uiso       1.00
     Cl120         Cl  0.0250762  0.0356242  0.5467541    0.00000       Uiso       1.00
      C446          C  0.7576265  0.8838350  0.0100448    0.00000       Uiso       1.00
      C447          C  0.7690540  0.8725535  0.0084287    0.00000       Uiso       1.00
      C448          C  0.7919671  0.8822450  0.0048961    0.00000       Uiso       1.00
      C449          C  0.7690538  0.9049277  0.0084284    0.00000       Uiso       1.00
      C450          C  0.7918929  0.9147096  0.0050371    0.00000       Uiso       1.00
      C451          C  0.8039491  0.9035639  0.0030704    0.00000       Uiso       1.00
      H121          H  0.0115247  0.1419120  0.0694698    0.00000       Uiso       1.00
      H122          H  0.7599809  0.9143863  0.0097650    0.00000       Uiso       1.00
      C452          C  0.0584321  0.9322251  0.0584350    0.00000       Uiso       1.00
      C453          C  0.0373391  0.9338412  0.0697165    0.00000       Uiso       1.00
      C454          C  0.0275570  0.9372328  0.0600513    0.00000       Uiso       1.00
      C455          C  0.0697139  0.9338415  0.0373423    0.00000       Uiso       1.00
      C456          C  0.0600223  0.9373742  0.0276536    0.00000       Uiso       1.00
      C457          C  0.0387035  0.9392002  0.0388172    0.00000       Uiso       1.00
      H123          H  0.8003574  0.8728059  0.0031936    0.00000       Uiso       1.00
      H124          H  0.0278803  0.9325045  0.0869114    0.00000       Uiso       1.00
      C458          C  0.0584300  0.1846393  0.0584331    0.00000       Uiso       1.00
      C459          C  0.0697118  0.1732121  0.0373405    0.00000       Uiso       1.00
      C460          C  0.0600479  0.1503730  0.0275597    0.00000       Uiso       1.00
      C461          C  0.0373371  0.1732118  0.0697148    0.00000       Uiso       1.00
      C462          C  0.0276499  0.1502986  0.0600252    0.00000       Uiso       1.00
      C463          C  0.0388147  0.1383167  0.0387068    0.00000       Uiso       1.00
      H125          H  0.0031889  0.9307429  0.8003604    0.00000       Uiso       1.00
      H126          H  0.0869068  0.1822850  0.0278819    0.00000       Uiso       1.00
      C464          C  0.0100427  0.8838359  0.7576303    0.00000       Uiso       1.00
      C465          C  0.0084263  0.9049285  0.7690576    0.00000       Uiso       1.00
      C466          C  0.0048939  0.9146174  0.7919703    0.00000       Uiso       1.00
      C467          C  0.0084265  0.8725542  0.7690579    0.00000       Uiso       1.00
      C468          C  0.0050358  0.8822201  0.7918965    0.00000       Uiso       1.00
      C469          C  0.0030690  0.9034548  0.8039519    0.00000       Uiso       1.00
      H127          H  0.0694634  0.9390779  0.0115272    0.00000       Uiso       1.00
      C470          C  0.9711331  0.9711327  0.9711373    0.00000       Uiso       1.00
      H128          H  0.0097633  0.8553595  0.7599851    0.00000       Uiso       1.00
     Cl121         Cl  0.7550469  0.8460070  0.0104923    0.00000       Uiso       1.00
     Cl122         Cl  0.0104898  0.9195313  0.7550503    0.00000       Uiso       1.00
     Cl123         Cl  0.0227339  0.1872188  0.0962611    0.00000       Uiso       1.00
     Cl124         Cl  0.0962606  0.9317781  0.0227396    0.00000       Uiso       1.00
     Cl125         Cl  0.8051149  0.9415423  0.0037499    0.00000       Uiso       1.00
     Cl126         Cl  0.0037483  0.8673217  0.8051184    0.00000       Uiso       1.00
     Cl127         Cl  0.0007246  0.9385213  0.0749502    0.00000       Uiso       1.00
     Cl128         Cl  0.0749478  0.1371488  0.0007296    0.00000       Uiso       1.00
      C471          C  0.8286946  0.9140339  0.9990327    0.00000       Uiso       1.00
      C472          C  0.8389477  0.9096161  0.0074180    0.00000       Uiso       1.00
      C473          C  0.8619463  0.9192212  0.0035630    0.00000       Uiso       1.00
      C474          C  0.8423667  0.9285910  0.9866897    0.00000       Uiso       1.00
      C475          C  0.8653325  0.9384487  0.9828985    0.00000       Uiso       1.00
      C476          C  0.8751845  0.9337298  0.9913142    0.00000       Uiso       1.00
      H129          H  0.8352560  0.9320383  0.9796334    0.00000       Uiso       1.00
      H130          H  0.8290101  0.8988916  0.0172393    0.00000       Uiso       1.00
      C477          C  0.0282318  0.9432380  0.0285815    0.00000       Uiso       1.00
      C478          C  0.0136822  0.9555890  0.0418098    0.00000       Uiso       1.00
      C479          C  0.0038234  0.9593800  0.0324942    0.00000       Uiso       1.00
      C480          C  0.0326414  0.9348446  0.0055278    0.00000       Uiso       1.00
      C481          C  0.0230342  0.9386981  0.9959909    0.00000       Uiso       1.00
      C482          C  0.0085340  0.9509556  0.0095090    0.00000       Uiso       1.00
      H131          H  0.0433564  0.9250142  0.9949156    0.00000       Uiso       1.00
      H132          H  0.0102414  0.9626521  0.0594244    0.00000       Uiso       1.00
      C483          C  0.0285810  0.1135706  0.0282353    0.00000       Uiso       1.00
      C484          C  0.0418124  0.0999008  0.0136778    0.00000       Uiso       1.00
      C485          C  0.0324970  0.0769330  0.0038173    0.00000       Uiso       1.00
      C486          C  0.0055265  0.1033181  0.0326524    0.00000       Uiso       1.00
      C487          C  0.9959913  0.0803213  0.0230475    0.00000       Uiso       1.00
      C488          C  0.0095081  0.0670810  0.0085373    0.00000       Uiso       1.00
      H133          H  0.9949143  0.1132490  0.0433733    0.00000       Uiso       1.00
      H134          H  0.0594296  0.1070192  0.0102345    0.00000       Uiso       1.00
      C489          C  0.9990323  0.9136924  0.8286979    0.00000       Uiso       1.00
      C490          C  0.0074231  0.9367467  0.8389488    0.00000       Uiso       1.00
      C491          C  0.0035658  0.9462848  0.8619472    0.00000       Uiso       1.00
      C492          C  0.9866830  0.9004648  0.8423703    0.00000       Uiso       1.00
      C493          C  0.9828921  0.9097813  0.8653358    0.00000       Uiso       1.00
      C494          C  0.9913120  0.9327666  0.8751868    0.00000       Uiso       1.00
      H135          H  0.9796231  0.8828512  0.8352590    0.00000       Uiso       1.00
      H136          H  0.0172520  0.9473513  0.8290076    0.00000       Uiso       1.00
      C495          C  0.0117115  0.9691889  0.8720279    0.00000       Uiso       1.00
      C496          C  0.0075670  0.9785573  0.8948911    0.00000       Uiso       1.00
      C497          C  0.0277066  0.9305459  0.9730862    0.00000       Uiso       1.00
      C498          C  0.0183539  0.9346870  0.9637177    0.00000       Uiso       1.00
     Cl129         Cl  0.0179039  0.0073421  0.9066504    0.00000       Uiso       1.00
     Cl130         Cl  0.0271257  0.9866193  0.8560806    0.00000       Uiso       1.00
     Cl131         Cl  0.0250403  0.9243416  0.9349332    0.00000       Uiso       1.00
     Cl132         Cl  0.0456687  0.9151303  0.9556506    0.00000       Uiso       1.00
      C499          C  0.8983421  0.9434081  0.9873272    0.00000       Uiso       1.00
      C500          C  0.9082811  0.9383720  0.9953567    0.00000       Uiso       1.00
      C501          C  0.9313864  0.9475288  0.9908023    0.00000       Uiso       1.00
      C502          C  0.9115619  0.9578325  0.9750217    0.00000       Uiso       1.00
      C503          C  0.9345607  0.9671038  0.9708369    0.00000       Uiso       1.00
      C504          C  0.9451286  0.9623331  0.9786296    0.00000       Uiso       1.00
      H137          H  0.9644574  0.9813058  0.0145968    0.00000       Uiso       1.00
      H138          H  0.9498890  0.0037999  0.9998592    0.00000       Uiso       1.00
      C505          C  0.9988561  0.9549409  0.0000162    0.00000       Uiso       1.00
      C506          C  0.9844378  0.9672539  0.0135258    0.00000       Uiso       1.00
      C507          C  0.9751648  0.9714380  0.0039833    0.00000       Uiso       1.00
      C508          C  0.0038820  0.9469004  0.9770105    0.00000       Uiso       1.00
      C509          C  0.9947265  0.9514564  0.9676167    0.00000       Uiso       1.00
      C510          C  0.9799312  0.9636394  0.9808510    0.00000       Uiso       1.00
      H139          H  0.9384677  0.9424183  0.9963313    0.00000       Uiso       1.00
      H140          H  0.9609855  0.9276726  0.9445214    0.00000       Uiso       1.00
      C511          C  0.0000114  0.0439242  0.9988601    0.00000       Uiso       1.00
      C512          C  0.0135220  0.0307039  0.9844330    0.00000       Uiso       1.00
      C513          C  0.0039779  0.0077049  0.9751618    0.00000       Uiso       1.00
      C514          C  0.9770063  0.0339873  0.0038992    0.00000       Uiso       1.00
      C515          C  0.9676100  0.0108802  0.9947441    0.00000       Uiso       1.00
      C516          C  0.9808458  0.9971374  0.9799375    0.00000       Uiso       1.00
      H141          H  0.9963365  0.9923791  0.9384747    0.00000       Uiso       1.00
      H142          H  0.9445207  0.9778178  0.9609763    0.00000       Uiso       1.00
      C517          C  0.9873248  0.9422585  0.8983439    0.00000       Uiso       1.00
      C518          C  0.9953580  0.9652644  0.9082835    0.00000       Uiso       1.00
      C519          C  0.9908009  0.9746577  0.9313905    0.00000       Uiso       1.00
      C520          C  0.9750184  0.9287472  0.9115641    0.00000       Uiso       1.00
      C521          C  0.9708355  0.9382888  0.9345632    0.00000       Uiso       1.00
      C522          C  0.9786259  0.9614210  0.9451323    0.00000       Uiso       1.00
      H143          H  0.0145901  0.9977412  0.9644395    0.00000       Uiso       1.00
      H144          H  0.9998302  0.9459192  0.9498950    0.00000       Uiso       1.00
      C523          C  0.9637132  0.0473793  0.0183802    0.00000       Uiso       1.00
      C524          C  0.9730839  0.0702420  0.0277307    0.00000       Uiso       1.00
      C525          C  0.0364204  0.0407298  0.9797873    0.00000       Uiso       1.00
      C526          C  0.0457791  0.0635352  0.9893754    0.00000       Uiso       1.00
      C527          C  0.8948911  0.9238915  0.0075612    0.00000       Uiso       1.00
      C528          C  0.8720275  0.9145380  0.0117039    0.00000       Uiso       1.00
      C529          C  0.9015349  0.9624797  0.9667966    0.00000       Uiso       1.00
      C530          C  0.8787264  0.9528915  0.9706602    0.00000       Uiso       1.00
      C531          C  0.9667909  0.9058490  0.9015370    0.00000       Uiso       1.00
      C532          C  0.9706515  0.8964947  0.8787305    0.00000       Uiso       1.00
      C533          C  0.9797995  0.9754881  0.0364241    0.00000       Uiso       1.00
      C534          C  0.9893886  0.9716260  0.0457802    0.00000       Uiso       1.00
     Cl133         Cl  0.9066461  0.9171923  0.0178930    0.00000       Uiso       1.00
     Cl134         Cl  0.8560787  0.8965635  0.0271063    0.00000       Uiso       1.00
     Cl135         Cl  0.9175003  0.9803084  0.9512368    0.00000       Uiso       1.00
     Cl136         Cl  0.8670605  0.9591487  0.9598409    0.00000       Uiso       1.00
     Cl137         Cl  0.9598260  0.8677525  0.8670698    0.00000       Uiso       1.00
     Cl138         Cl  0.9512342  0.8884299  0.9175063    0.00000       Uiso       1.00
     Cl139         Cl  0.9831398  0.9824602  0.0745216    0.00000       Uiso       1.00
     Cl140         Cl  0.9619814  0.9910594  0.0538420    0.00000       Uiso       1.00
     Cl141         Cl  0.0538397  0.0247606  0.9619586    0.00000       Uiso       1.00
     Cl142         Cl  0.0745220  0.0751924  0.9831163    0.00000       Uiso       1.00
     Cl143         Cl  0.9556494  0.0861843  0.0457042    0.00000       Uiso       1.00
     Cl144         Cl  0.9349273  0.0356242  0.0250794    0.00000       Uiso       1.00
        B1          B  0.7325556  0.4585992  0.5985922    0.00000       Uiso       1.00
        B2          B  0.5985882  0.4585983  0.5985913    0.00000       Uiso       1.00
        B3          B  0.5985880  0.4585980  0.7325576    0.00000       Uiso       1.00
      C535          C  0.6619615  0.4571092  0.6234919    0.00000       Uiso       1.00
      C536          C  0.6999353  0.4574953  0.6052164    0.00000       Uiso       1.00
      H145          H  0.6830329  0.4571822  0.5893447    0.00000       Uiso       1.00
        O1          O  0.7199328  0.4581566  0.5882576    0.00000       Uiso       1.00
      C537          C  0.6814895  0.4572632  0.6046658    0.00000       Uiso       1.00
      C538          C  0.6234885  0.4571089  0.6427954    0.00000       Uiso       1.00
      C539          C  0.6052126  0.4574946  0.6234834    0.00000       Uiso       1.00
      H146          H  0.5893409  0.4571815  0.6559441    0.00000       Uiso       1.00
        O2          O  0.5882535  0.4581556  0.6211060    0.00000       Uiso       1.00
      C540          C  0.6046621  0.4572626  0.6422476    0.00000       Uiso       1.00
      C541          C  0.6427924  0.4571090  0.6619644    0.00000       Uiso       1.00
      C542          C  0.6234803  0.4574947  0.6999378    0.00000       Uiso       1.00
      H147          H  0.6559414  0.4571819  0.6830357    0.00000       Uiso       1.00
        O3          O  0.6211030  0.4581557  0.7199351    0.00000       Uiso       1.00
      C543          C  0.6422446  0.4572628  0.6814922    0.00000       Uiso       1.00
      C544          C  0.6427925  0.4571091  0.6234918    0.00000       Uiso       1.00
      C545          C  0.6234804  0.4574948  0.6052158    0.00000       Uiso       1.00
        O4          O  0.6211032  0.4581559  0.5882569    0.00000       Uiso       1.00
      H148          H  0.6559415  0.4571820  0.5893446    0.00000       Uiso       1.00
      C546          C  0.6422448  0.4572629  0.6046656    0.00000       Uiso       1.00
      C547          C  0.6619615  0.4571092  0.6427957    0.00000       Uiso       1.00
      C548          C  0.6999353  0.4574953  0.6234841    0.00000       Uiso       1.00
      H149          H  0.6830329  0.4571822  0.6559447    0.00000       Uiso       1.00
        O5          O  0.7199327  0.4581565  0.6211069    0.00000       Uiso       1.00
      C549          C  0.6814894  0.4572631  0.6422480    0.00000       Uiso       1.00
      C550          C  0.6234885  0.4571089  0.6619643    0.00000       Uiso       1.00
      C551          C  0.6052125  0.4574946  0.6999376    0.00000       Uiso       1.00
      H150          H  0.5893409  0.4571814  0.6830353    0.00000       Uiso       1.00
        O6          O  0.5882534  0.4581555  0.7199348    0.00000       Uiso       1.00
      C552          C  0.6046621  0.4572625  0.6814919    0.00000       Uiso       1.00
        B4          B  0.5985854  0.8725433  0.7325548    0.00000       Uiso       1.00
        B5          B  0.5985864  0.7385780  0.5985894    0.00000       Uiso       1.00
        B6          B  0.7325530  0.8725445  0.5985894    0.00000       Uiso       1.00
      C553          C  0.6234861  0.8283399  0.6619617    0.00000       Uiso       1.00
      C554          C  0.6052101  0.8476515  0.6999350    0.00000       Uiso       1.00
      H151          H  0.5893386  0.8151909  0.6830329    0.00000       Uiso       1.00
        O7          O  0.5882509  0.8500286  0.7199321    0.00000       Uiso       1.00
      C555          C  0.6046597  0.8288875  0.6814893    0.00000       Uiso       1.00
      C556          C  0.6427902  0.8091714  0.6234894    0.00000       Uiso       1.00
      C557          C  0.6234784  0.7711980  0.6052137    0.00000       Uiso       1.00
      H152          H  0.6559394  0.7881004  0.5893423    0.00000       Uiso       1.00
        O8          O  0.6211013  0.7512009  0.5882549    0.00000       Uiso       1.00
      C558          C  0.6422426  0.7896438  0.6046633    0.00000       Uiso       1.00
      C559          C  0.6619590  0.8476439  0.6427930    0.00000       Uiso       1.00
      C560          C  0.6999327  0.8659198  0.6234812    0.00000       Uiso       1.00
      H153          H  0.6830301  0.8817911  0.6559418    0.00000       Uiso       1.00
        O9          O  0.7199301  0.8828788  0.6211041    0.00000       Uiso       1.00
      C561          C  0.6814868  0.8664701  0.6422453    0.00000       Uiso       1.00
      C562          C  0.6234863  0.8091712  0.6427930    0.00000       Uiso       1.00
      C563          C  0.6052106  0.7711979  0.6234813    0.00000       Uiso       1.00
       O10          O  0.5882517  0.7512006  0.6211041    0.00000       Uiso       1.00
      H154          H  0.5893388  0.7880999  0.6559418    0.00000       Uiso       1.00
      C564          C  0.6046600  0.7896435  0.6422453    0.00000       Uiso       1.00
      C565          C  0.6427900  0.8476437  0.6619617    0.00000       Uiso       1.00
      C566          C  0.6234778  0.8659192  0.6999350    0.00000       Uiso       1.00
      H155          H  0.6559387  0.8817909  0.6830329    0.00000       Uiso       1.00
       O11          O  0.6211004  0.8828780  0.7199321    0.00000       Uiso       1.00
      C567          C  0.6422420  0.8664697  0.6814893    0.00000       Uiso       1.00
      C568          C  0.6619591  0.8283403  0.6234894    0.00000       Uiso       1.00
      C569          C  0.6999329  0.8476523  0.6052137    0.00000       Uiso       1.00
      H156          H  0.6830307  0.8151916  0.5893423    0.00000       Uiso       1.00
       O12          O  0.7199303  0.8500297  0.5882549    0.00000       Uiso       1.00
      C570          C  0.6814871  0.8288882  0.6046633    0.00000       Uiso       1.00
      C571          C  0.5429361  0.3767630  0.2287436    0.00000       Uiso       1.00
      C572          C  0.5440650  0.3580320  0.2098750    0.00000       Uiso       1.00
      C573          C  0.5462590  0.3400543  0.2092753    0.00000       Uiso       1.00
      C574          C  0.5462493  0.3210044  0.1906268    0.00000       Uiso       1.00
      C575          C  0.5427950  0.3190062  0.1725891    0.00000       Uiso       1.00
      C576          C  0.5402839  0.3372075  0.1736863    0.00000       Uiso       1.00
      C577          C  0.5424433  0.3572977  0.1913168    0.00000       Uiso       1.00
       O13          O  0.5434092  0.3797686  0.2485292    0.00000       Uiso       1.00
      H157          H  0.5480027  0.3408553  0.2233593    0.00000       Uiso       1.00
      H158          H  0.5487303  0.3078934  0.1907074    0.00000       Uiso       1.00
      H159          H  0.5352244  0.3353186  0.1614271    0.00000       Uiso       1.00
      C578          C  0.5429941  0.3949192  0.0943504    0.00000       Uiso       1.00
      C579          C  0.5441360  0.3959129  0.1130766    0.00000       Uiso       1.00
      C580          C  0.5463188  0.4154802  0.1310614    0.00000       Uiso       1.00
      C581          C  0.5463024  0.4158660  0.1501121    0.00000       Uiso       1.00
      C582          C  0.5428470  0.3963704  0.1521074    0.00000       Uiso       1.00
      C583          C  0.5403579  0.3767626  0.1338930    0.00000       Uiso       1.00
      C584          C  0.5425265  0.3764698  0.1138024    0.00000       Uiso       1.00
       O14          O  0.5434374  0.4121666  0.0913603    0.00000       Uiso       1.00
      H160          H  0.5480480  0.4305058  0.1302722    0.00000       Uiso       1.00
      H161          H  0.5487723  0.4315357  0.1632278    0.00000       Uiso       1.00
      H162          H  0.5353001  0.3613288  0.1357693    0.00000       Uiso       1.00
      C585          C  0.5429751  0.2424141  0.0762305    0.00000       Uiso       1.00
      C586          C  0.5441339  0.2612917  0.0752321    0.00000       Uiso       1.00
      C587          C  0.5463475  0.2618953  0.0556544    0.00000       Uiso       1.00
      C588          C  0.5463586  0.2805511  0.0552543    0.00000       Uiso       1.00
      C589          C  0.5429059  0.2985914  0.0747463    0.00000       Uiso       1.00
      C590          C  0.5403870  0.2974937  0.0943665    0.00000       Uiso       1.00
      C591          C  0.5425184  0.2798509  0.0946753    0.00000       Uiso       1.00
       O15          O  0.5434446  0.2226300  0.0589764    0.00000       Uiso       1.00
      H163          H  0.5480794  0.2478018  0.0406339    0.00000       Uiso       1.00
      H164          H  0.5488446  0.2804702  0.0395792    0.00000       Uiso       1.00
      H165          H  0.5353352  0.3097575  0.1097949    0.00000       Uiso       1.00
      C592          C  0.5401208  0.2415173  0.0955042    0.00000       Uiso       1.00
      C593          C  0.5395977  0.2598673  0.1147910    0.00000       Uiso       1.00
      C594          C  0.5372079  0.2590339  0.1343295    0.00000       Uiso       1.00
      C595          C  0.5375603  0.2778240  0.1532357    0.00000       Uiso       1.00
      C596          C  0.5415840  0.2982494  0.1526828    0.00000       Uiso       1.00
      C597          C  0.5444477  0.2988201  0.1326655    0.00000       Uiso       1.00
      C598          C  0.5418863  0.2796581  0.1141771    0.00000       Uiso       1.00
       O16          O  0.5384938  0.2210780  0.0931949    0.00000       Uiso       1.00
      H166          H  0.5349792  0.2436961  0.1348990    0.00000       Uiso       1.00
      H167          H  0.5348320  0.2761046  0.1681048    0.00000       Uiso       1.00
      H168          H  0.5499760  0.3144661  0.1309857    0.00000       Uiso       1.00
      C599          C  0.5401776  0.3756530  0.0770172    0.00000       Uiso       1.00
      C600          C  0.5396752  0.3563728  0.0765973    0.00000       Uiso       1.00
      C601          C  0.5373330  0.3368442  0.0585963    0.00000       Uiso       1.00
      C602          C  0.5377003  0.3179458  0.0581273    0.00000       Uiso       1.00
      C603          C  0.5416872  0.3184932  0.0751039    0.00000       Uiso       1.00
      C604          C  0.5445065  0.3385023  0.0928450    0.00000       Uiso       1.00
      C605          C  0.5419338  0.3569813  0.0947276    0.00000       Uiso       1.00
       O17          O  0.5385571  0.3779629  0.0605113    0.00000       Uiso       1.00
      H169          H  0.5351198  0.3362732  0.0449065    0.00000       Uiso       1.00
      H170          H  0.5350050  0.3030853  0.0442499    0.00000       Uiso       1.00
      H171          H  0.5500188  0.3401928  0.1046602    0.00000       Uiso       1.00
      C606          C  0.5401172  0.3940943  0.2296243    0.00000       Uiso       1.00
      C607          C  0.5396001  0.3945050  0.2112705    0.00000       Uiso       1.00
      C608          C  0.5372640  0.4125088  0.2120859    0.00000       Uiso       1.00
      C609          C  0.5376343  0.4129826  0.1932905    0.00000       Uiso       1.00
      C610          C  0.5416099  0.3960002  0.1728741    0.00000       Uiso       1.00
      C611          C  0.5444138  0.3782487  0.1723242    0.00000       Uiso       1.00
      C612          C  0.5418465  0.3763693  0.1914937    0.00000       Uiso       1.00
       O18          O  0.5385206  0.4106137  0.2500515    0.00000       Uiso       1.00
      H172          H  0.5350594  0.4261999  0.2274190    0.00000       Uiso       1.00
      H173          H  0.5349531  0.4268693  0.1950041    0.00000       Uiso       1.00
      H174          H  0.5499153  0.3664255  0.1566863    0.00000       Uiso       1.00
        B7          B  0.5405999  0.4013256  0.2619325    0.00000       Uiso       1.00
        B8          B  0.5406168  0.4012063  0.0698091    0.00000       Uiso       1.00
        B9          B  0.5405974  0.2092087  0.0699410    0.00000       Uiso       1.00
      C613          C  0.2287380  0.3949133  0.5429366    0.00000       Uiso       1.00
      C614          C  0.2098691  0.3959043  0.5440652    0.00000       Uiso       1.00
      C615          C  0.2092691  0.4154761  0.5462589    0.00000       Uiso       1.00
      C616          C  0.1906203  0.4158674  0.5462490    0.00000       Uiso       1.00
      C617          C  0.1725826  0.3963737  0.5427947    0.00000       Uiso       1.00
      C618          C  0.1736800  0.3767587  0.5402839    0.00000       Uiso       1.00
      C619          C  0.1913108  0.3764586  0.5424435    0.00000       Uiso       1.00
       O19          O  0.2485236  0.4121663  0.5434098    0.00000       Uiso       1.00
      H175          H  0.2233531  0.4305028  0.5480027    0.00000       Uiso       1.00
      H176          H  0.1907007  0.4315398  0.5487297    0.00000       Uiso       1.00
      H177          H  0.1614209  0.3613290  0.5352244    0.00000       Uiso       1.00
      C620          C  0.0943447  0.2424220  0.5429947    0.00000       Uiso       1.00
      C621          C  0.1130710  0.2612966  0.5441367    0.00000       Uiso       1.00
      C622          C  0.1310561  0.2618971  0.5463197    0.00000       Uiso       1.00
      C623          C  0.1501068  0.2805456  0.5463034    0.00000       Uiso       1.00
      C624          C  0.1521019  0.2985808  0.5428477    0.00000       Uiso       1.00
      C625          C  0.1338873  0.2974849  0.5403584    0.00000       Uiso       1.00
      C626          C  0.1137965  0.2798557  0.5425270    0.00000       Uiso       1.00
       O20          O  0.0913549  0.2226281  0.5434382    0.00000       Uiso       1.00
      H178          H  0.1302670  0.2478116  0.5480490    0.00000       Uiso       1.00
      H179          H  0.1632227  0.2804616  0.5487735    0.00000       Uiso       1.00
      H180          H  0.1357634  0.3097370  0.5353004    0.00000       Uiso       1.00
      C627          C  0.0762228  0.3767863  0.5429738    0.00000       Uiso       1.00
      C628          C  0.0752247  0.3580694  0.5441327    0.00000       Uiso       1.00
      C629          C  0.0556468  0.3401016  0.5463463    0.00000       Uiso       1.00
      C630          C  0.0552470  0.3210569  0.5463576    0.00000       Uiso       1.00
      C631          C  0.0747393  0.3190563  0.5429053    0.00000       Uiso       1.00
      C632          C  0.0943596  0.3372554  0.5403864    0.00000       Uiso       1.00
      C633          C  0.0946681  0.3573381  0.5425176    0.00000       Uiso       1.00
       O21          O  0.0589683  0.3797854  0.5434429    0.00000       Uiso       1.00
      H181          H  0.0406261  0.3409063  0.5480779    0.00000       Uiso       1.00
      H182          H  0.0395718  0.3079489  0.5488436    0.00000       Uiso       1.00
      H183          H  0.1097882  0.3353683  0.5353348    0.00000       Uiso       1.00
      C634          C  0.0954965  0.3941024  0.5401194    0.00000       Uiso       1.00
      C635          C  0.1147836  0.3945165  0.5395966    0.00000       Uiso       1.00
      C636          C  0.1343222  0.4124987  0.5372069    0.00000       Uiso       1.00
      C637          C  0.1532287  0.4129673  0.5375596    0.00000       Uiso       1.00
      C638          C  0.1526760  0.3960129  0.5415834    0.00000       Uiso       1.00
      C639          C  0.1326587  0.3782886  0.5444470    0.00000       Uiso       1.00
      C640          C  0.1141700  0.3764006  0.5418854    0.00000       Uiso       1.00
       O22          O  0.0931870  0.4106051  0.5384921    0.00000       Uiso       1.00
      H184          H  0.1348915  0.4261770  0.5349780    0.00000       Uiso       1.00
      H185          H  0.1680978  0.4268275  0.5348312    0.00000       Uiso       1.00
      H186          H  0.1309790  0.3664913  0.5499755    0.00000       Uiso       1.00
      C641          C  0.0770113  0.2415384  0.5401781    0.00000       Uiso       1.00
      C642          C  0.0765912  0.2598961  0.5396754    0.00000       Uiso       1.00
      C643          C  0.0585899  0.2590812  0.5373329    0.00000       Uiso       1.00
      C644          C  0.0581206  0.2778775  0.5377000    0.00000       Uiso       1.00
      C645          C  0.0750972  0.2982936  0.5416868    0.00000       Uiso       1.00
      C646          C  0.0928385  0.2988452  0.5445064    0.00000       Uiso       1.00
      C647          C  0.0947214  0.2796763  0.5419340    0.00000       Uiso       1.00
       O23          O  0.0605054  0.2211021  0.5385575    0.00000       Uiso       1.00
      H187          H  0.0449001  0.2437493  0.5351198    0.00000       Uiso       1.00
      H188          H  0.0442431  0.2761654  0.5350045    0.00000       Uiso       1.00
      H189          H  0.1046537  0.3144822  0.5500187    0.00000       Uiso       1.00
      C648          C  0.2296189  0.3756440  0.5401180    0.00000       Uiso       1.00
      C649          C  0.2112651  0.3563625  0.5396010    0.00000       Uiso       1.00
      C650          C  0.2120808  0.3368382  0.5372651    0.00000       Uiso       1.00
      C651          C  0.1932853  0.3179393  0.5376354    0.00000       Uiso       1.00
      C652          C  0.1728687  0.3184806  0.5416107    0.00000       Uiso       1.00
      C653          C  0.1723185  0.3384859  0.5444143    0.00000       Uiso       1.00
      C654          C  0.1914881  0.3569675  0.5418469    0.00000       Uiso       1.00
       O24          O  0.2500464  0.3779556  0.5385218    0.00000       Uiso       1.00
      H190          H  0.2274141  0.3362758  0.5350607    0.00000       Uiso       1.00
      H191          H  0.1949992  0.3030852  0.5349544    0.00000       Uiso       1.00
      H192          H  0.1566803  0.3401724  0.5499154    0.00000       Uiso       1.00
       B10          B  0.2619272  0.4012038  0.5406008    0.00000       Uiso       1.00
       B11          B  0.0698035  0.2092165  0.5406175    0.00000       Uiso       1.00
       B12          B  0.0699328  0.4013240  0.5405955    0.00000       Uiso       1.00
       B13          B  0.0125363  0.8725464  0.5985913    0.00000       Uiso       1.00
       B14          B  0.0125371  0.7385809  0.5985923    0.00000       Uiso       1.00
       B15          B  0.0125362  0.8725463  0.7325577    0.00000       Uiso       1.00
      C655          C  0.0140260  0.8283427  0.6234918    0.00000       Uiso       1.00
      C656          C  0.0136401  0.8476546  0.6052159    0.00000       Uiso       1.00
      H193          H  0.0139533  0.8151940  0.5893446    0.00000       Uiso       1.00
       O25          O  0.0129790  0.8500318  0.5882569    0.00000       Uiso       1.00
      C657          C  0.0138722  0.8288906  0.6046656    0.00000       Uiso       1.00
      C658          C  0.0140261  0.8091739  0.6427957    0.00000       Uiso       1.00
      C659          C  0.0136405  0.7712007  0.6234841    0.00000       Uiso       1.00
      H194          H  0.0139534  0.7881029  0.6559447    0.00000       Uiso       1.00
       O26          O  0.0129796  0.7512036  0.6211070    0.00000       Uiso       1.00
      C660          C  0.0138724  0.7896463  0.6422481    0.00000       Uiso       1.00
      C661          C  0.0140259  0.8476464  0.6619643    0.00000       Uiso       1.00
      C662          C  0.0136398  0.8659219  0.6999376    0.00000       Uiso       1.00
      H195          H  0.0139528  0.8817934  0.6830353    0.00000       Uiso       1.00
       O27          O  0.0129786  0.8828807  0.7199348    0.00000       Uiso       1.00
      C663          C  0.0138719  0.8664724  0.6814919    0.00000       Uiso       1.00
      C664          C  0.0140262  0.8091740  0.6234919    0.00000       Uiso       1.00
      C665          C  0.0136406  0.7712008  0.6052164    0.00000       Uiso       1.00
       O28          O  0.0129796  0.7512037  0.5882576    0.00000       Uiso       1.00
      H196          H  0.0139535  0.7881030  0.5893448    0.00000       Uiso       1.00
      C666          C  0.0138725  0.7896464  0.6046658    0.00000       Uiso       1.00
      C667          C  0.0140259  0.8476464  0.6427954    0.00000       Uiso       1.00
      C668          C  0.0136399  0.8659220  0.6234834    0.00000       Uiso       1.00
      H197          H  0.0139528  0.8817934  0.6559441    0.00000       Uiso       1.00
       O29          O  0.0129787  0.8828809  0.6211060    0.00000       Uiso       1.00
      C669          C  0.0138720  0.8664725  0.6422476    0.00000       Uiso       1.00
      C670          C  0.0140260  0.8283427  0.6619644    0.00000       Uiso       1.00
      C671          C  0.0136400  0.8476544  0.6999378    0.00000       Uiso       1.00
      H198          H  0.0139532  0.8151938  0.6830357    0.00000       Uiso       1.00
       O30          O  0.0129788  0.8500316  0.7199351    0.00000       Uiso       1.00
      C672          C  0.0138722  0.8288904  0.6814922    0.00000       Uiso       1.00
      C673          C  0.0943762  0.3949198  0.2287476    0.00000       Uiso       1.00
      C674          C  0.1131075  0.3959111  0.2098790    0.00000       Uiso       1.00
      C675          C  0.1310854  0.4154831  0.2092791    0.00000       Uiso       1.00
      C676          C  0.1501356  0.4158747  0.1906306    0.00000       Uiso       1.00
      C677          C  0.1521340  0.3963812  0.1725931    0.00000       Uiso       1.00
      C678          C  0.1339325  0.3767660  0.1736904    0.00000       Uiso       1.00
      C679          C  0.1138420  0.3764657  0.1913209    0.00000       Uiso       1.00
       O31          O  0.0913703  0.4121727  0.2485330    0.00000       Uiso       1.00
      H199          H  0.1302843  0.4305097  0.2233630    0.00000       Uiso       1.00
      H200          H  0.1632467  0.4315472  0.1907111    0.00000       Uiso       1.00
      H201          H  0.1358215  0.3613364  0.1614314    0.00000       Uiso       1.00
      C680          C  0.0762210  0.2424296  0.0943554    0.00000       Uiso       1.00
      C681          C  0.0752272  0.2613040  0.1130815    0.00000       Uiso       1.00
      C682          C  0.0556595  0.2619042  0.1310663    0.00000       Uiso       1.00
      C683          C  0.0552736  0.2805526  0.1501168    0.00000       Uiso       1.00
      C684          C  0.0747693  0.2985879  0.1521120    0.00000       Uiso       1.00
      C685          C  0.0943774  0.2974923  0.1338977    0.00000       Uiso       1.00
      C686          C  0.0946705  0.2798632  0.1138071    0.00000       Uiso       1.00
       O32          O  0.0589735  0.2226356  0.0913655    0.00000       Uiso       1.00
      H202          H  0.0406338  0.2478186  0.1302771    0.00000       Uiso       1.00
      H203          H  0.0396036  0.2804683  0.1632325    0.00000       Uiso       1.00
      H204          H  0.1098113  0.3097444  0.1357739    0.00000       Uiso       1.00
      C687          C  0.2287276  0.3767951  0.0762346    0.00000       Uiso       1.00
      C688          C  0.2098498  0.3580780  0.0752364    0.00000       Uiso       1.00
      C689          C  0.2092464  0.3401104  0.0556587    0.00000       Uiso       1.00
      C690          C  0.1905904  0.3210656  0.0552587    0.00000       Uiso       1.00
      C691          C  0.1725498  0.3190647  0.0747508    0.00000       Uiso       1.00
      C692          C  0.1736474  0.3372636  0.0943709    0.00000       Uiso       1.00
      C693          C  0.1912903  0.3573465  0.0946795    0.00000       Uiso       1.00
       O33          O  0.2485120  0.3797945  0.0589804    0.00000       Uiso       1.00
      H205          H  0.2233402  0.3409154  0.0406382    0.00000       Uiso       1.00
      H206          H  0.1906715  0.3079577  0.0395837    0.00000       Uiso       1.00
      H207          H  0.1613833  0.3353764  0.1097993    0.00000       Uiso       1.00
      C694          C  0.2296242  0.3941111  0.0955082    0.00000       Uiso       1.00
      C695          C  0.2112739  0.3945248  0.1147950    0.00000       Uiso       1.00
      C696          C  0.2121072  0.4125068  0.1343334    0.00000       Uiso       1.00
      C697          C  0.1933167  0.4129752  0.1532396    0.00000       Uiso       1.00
      C698          C  0.1728911  0.3960207  0.1526868    0.00000       Uiso       1.00
      C699          C  0.1723206  0.3782965  0.1326696    0.00000       Uiso       1.00
      C700          C  0.1914829  0.3764088  0.1141813    0.00000       Uiso       1.00
       O34          O  0.2500637  0.4106139  0.0931988    0.00000       Uiso       1.00
      H208          H  0.2274450  0.4261853  0.1349028    0.00000       Uiso       1.00
      H209          H  0.1950360  0.4268353  0.1681086    0.00000       Uiso       1.00
      H210          H  0.1566745  0.3664991  0.1309899    0.00000       Uiso       1.00
      C701          C  0.0954876  0.2415463  0.0770223    0.00000       Uiso       1.00
      C702          C  0.1147679  0.2599041  0.0766023    0.00000       Uiso       1.00
      C703          C  0.1342968  0.2590894  0.0586013    0.00000       Uiso       1.00
      C704          C  0.1531953  0.2778859  0.0581321    0.00000       Uiso       1.00
      C705          C  0.1526478  0.2983018  0.0751085    0.00000       Uiso       1.00
      C706          C  0.1326384  0.2988532  0.0928496    0.00000       Uiso       1.00
      C707          C  0.1141593  0.2796842  0.0947323    0.00000       Uiso       1.00
       O35          O  0.0931777  0.2211100  0.0605165    0.00000       Uiso       1.00
      H211          H  0.1348679  0.2437577  0.0449116    0.00000       Uiso       1.00
      H212          H  0.1680562  0.2761740  0.0442548    0.00000       Uiso       1.00
      H213          H  0.1309478  0.3144901  0.1046646    0.00000       Uiso       1.00
      C708          C  0.0770447  0.3756504  0.2296284    0.00000       Uiso       1.00
      C709          C  0.0766342  0.3563691  0.2112748    0.00000       Uiso       1.00
      C710          C  0.0586303  0.3368447  0.2120903    0.00000       Uiso       1.00
      C711          C  0.0581565  0.3179459  0.1932950    0.00000       Uiso       1.00
      C712          C  0.0751393  0.3184876  0.1728786    0.00000       Uiso       1.00
      C713          C  0.0928910  0.3384929  0.1723286    0.00000       Uiso       1.00
      C714          C  0.0947703  0.3569744  0.1914980    0.00000       Uiso       1.00
       O36          O  0.0605251  0.3779617  0.2500556    0.00000       Uiso       1.00
      H214          H  0.0449389  0.3362820  0.2274234    0.00000       Uiso       1.00
      H215          H  0.0442697  0.3030916  0.1950088    0.00000       Uiso       1.00
      H216          H  0.1047144  0.3401796  0.1566906    0.00000       Uiso       1.00
       B16          B  0.0698131  0.4012099  0.2619364    0.00000       Uiso       1.00
       B17          B  0.0699341  0.2092242  0.0698143    0.00000       Uiso       1.00
       B18          B  0.2619333  0.4013331  0.0699449    0.00000       Uiso       1.00
       B19          B  0.7325536  0.8725451  0.0125379    0.00000       Uiso       1.00
       B20          B  0.5985870  0.7385787  0.0125380    0.00000       Uiso       1.00
       B21          B  0.5985862  0.8725442  0.0125370    0.00000       Uiso       1.00
      C715          C  0.6619598  0.8283410  0.0140272    0.00000       Uiso       1.00
      C716          C  0.6999335  0.8476530  0.0136415    0.00000       Uiso       1.00
      H217          H  0.6830313  0.8151923  0.0139546    0.00000       Uiso       1.00
       O37          O  0.7199309  0.8500304  0.0129805    0.00000       Uiso       1.00
      C717          C  0.6814877  0.8288889  0.0138736    0.00000       Uiso       1.00
      C718          C  0.6234869  0.8091720  0.0140271    0.00000       Uiso       1.00
      C719          C  0.6052113  0.7711986  0.0136414    0.00000       Uiso       1.00
      H218          H  0.5893395  0.7881007  0.0139542    0.00000       Uiso       1.00
       O38          O  0.5882523  0.7512013  0.0129803    0.00000       Uiso       1.00
      C720          C  0.6046607  0.7896442  0.0138733    0.00000       Uiso       1.00
      C721          C  0.6427906  0.8476446  0.0140270    0.00000       Uiso       1.00
      C722          C  0.6234785  0.8659201  0.0136408    0.00000       Uiso       1.00
      H219          H  0.6559395  0.8817917  0.0139540    0.00000       Uiso       1.00
       O39          O  0.6211011  0.8828788  0.0129796    0.00000       Uiso       1.00
      C723          C  0.6422428  0.8664706  0.0138730    0.00000       Uiso       1.00
      C724          C  0.6427909  0.8091722  0.0140272    0.00000       Uiso       1.00
      C725          C  0.6234791  0.7711987  0.0136415    0.00000       Uiso       1.00
       O40          O  0.6211020  0.7512016  0.0129805    0.00000       Uiso       1.00
      H220          H  0.6559401  0.7881011  0.0139546    0.00000       Uiso       1.00
      C726          C  0.6422433  0.7896445  0.0138736    0.00000       Uiso       1.00
      C727          C  0.6619597  0.8476447  0.0140271    0.00000       Uiso       1.00
      C728          C  0.6999334  0.8659206  0.0136414    0.00000       Uiso       1.00
      H221          H  0.6830308  0.8817918  0.0139541    0.00000       Uiso       1.00
       O41          O  0.7199307  0.8828796  0.0129803    0.00000       Uiso       1.00
      C729          C  0.6814875  0.8664709  0.0138733    0.00000       Uiso       1.00
      C730          C  0.6234868  0.8283408  0.0140270    0.00000       Uiso       1.00
      C731          C  0.6052108  0.8476524  0.0136408    0.00000       Uiso       1.00
      H222          H  0.5893394  0.8151917  0.0139540    0.00000       Uiso       1.00
       O42          O  0.5882517  0.8500295  0.0129796    0.00000       Uiso       1.00
      C732          C  0.6046605  0.8288884  0.0138730    0.00000       Uiso       1.00
      C733          C  0.2287351  0.9281937  0.0943699    0.00000       Uiso       1.00
      C734          C  0.2098662  0.9270648  0.1131009    0.00000       Uiso       1.00
      C735          C  0.2092664  0.9248710  0.1310788    0.00000       Uiso       1.00
      C736          C  0.1906175  0.9248806  0.1501287    0.00000       Uiso       1.00
      C737          C  0.1725797  0.9283347  0.1521268    0.00000       Uiso       1.00
      C738          C  0.1736769  0.9308457  0.1339253    0.00000       Uiso       1.00
      C739          C  0.1913078  0.9286864  0.1138351    0.00000       Uiso       1.00
       O43          O  0.2485208  0.9277207  0.0913643    0.00000       Uiso       1.00
      H223          H  0.2233505  0.9231273  0.1302779    0.00000       Uiso       1.00
      H224          H  0.1906980  0.9223998  0.1632398    0.00000       Uiso       1.00
      H225          H  0.1614177  0.9359051  0.1358141    0.00000       Uiso       1.00
      C740          C  0.0943409  0.9281347  0.0762128    0.00000       Uiso       1.00
      C741          C  0.1130673  0.9269930  0.0752193    0.00000       Uiso       1.00
      C742          C  0.1310524  0.9248102  0.0556519    0.00000       Uiso       1.00
      C743          C  0.1501032  0.9248267  0.0552663    0.00000       Uiso       1.00
      C744          C  0.1520984  0.9282822  0.0747619    0.00000       Uiso       1.00
      C745          C  0.1338837  0.9307713  0.0943697    0.00000       Uiso       1.00
      C746          C  0.1137928  0.9286025  0.0946625    0.00000       Uiso       1.00
       O44          O  0.0913509  0.9276915  0.0589653    0.00000       Uiso       1.00
      H226          H  0.1302633  0.9230810  0.0406263    0.00000       Uiso       1.00
      H227          H  0.1632191  0.9223568  0.0395965    0.00000       Uiso       1.00
      H228          H  0.1357598  0.9358291  0.1098035    0.00000       Uiso       1.00
      C747          C  0.0762196  0.9281544  0.2287188    0.00000       Uiso       1.00
      C748          C  0.0752214  0.9269955  0.2098411    0.00000       Uiso       1.00
      C749          C  0.0556435  0.9247818  0.2092375    0.00000       Uiso       1.00
      C750          C  0.0552435  0.9247707  0.1905815    0.00000       Uiso       1.00
      C751          C  0.0747358  0.9282233  0.1725411    0.00000       Uiso       1.00
      C752          C  0.0943562  0.9307423  0.1736390    0.00000       Uiso       1.00
      C753          C  0.0946648  0.9286109  0.1912819    0.00000       Uiso       1.00
       O45          O  0.0589652  0.9276850  0.2485030    0.00000       Uiso       1.00
      H229          H  0.0406228  0.9230499  0.2233310    0.00000       Uiso       1.00
      H230          H  0.0395683  0.9222845  0.1906624    0.00000       Uiso       1.00
      H231          H  0.1097848  0.9357941  0.1613750    0.00000       Uiso       1.00
      C754          C  0.0954935  0.9310088  0.2296157    0.00000       Uiso       1.00
      C755          C  0.1147806  0.9315319  0.2112657    0.00000       Uiso       1.00
      C756          C  0.1343192  0.9339218  0.2120992    0.00000       Uiso       1.00
      C757          C  0.1532257  0.9335694  0.1933090    0.00000       Uiso       1.00
      C758          C  0.1526730  0.9295457  0.1728836    0.00000       Uiso       1.00
      C759          C  0.1326556  0.9266819  0.1723128    0.00000       Uiso       1.00
      C760          C  0.1141669  0.9292433  0.1914747    0.00000       Uiso       1.00
       O46          O  0.0931840  0.9326360  0.2500550    0.00000       Uiso       1.00
      H232          H  0.1348886  0.9361506  0.2274370    0.00000       Uiso       1.00
      H233          H  0.1680949  0.9362978  0.1950285    0.00000       Uiso       1.00
      H234          H  0.1309759  0.9211535  0.1566668    0.00000       Uiso       1.00
      C761          C  0.0770074  0.9309512  0.0954790    0.00000       Uiso       1.00
      C762          C  0.0765873  0.9314536  0.1147594    0.00000       Uiso       1.00
      C763          C  0.0585860  0.9337959  0.1342879    0.00000       Uiso       1.00
      C764          C  0.0581168  0.9334287  0.1531864    0.00000       Uiso       1.00
      C765          C  0.0750935  0.9294419  0.1526391    0.00000       Uiso       1.00
      C766          C  0.0928350  0.9266227  0.1326301    0.00000       Uiso       1.00
      C767          C  0.0947177  0.9291953  0.1141510    0.00000       Uiso       1.00
       O47          O  0.0605013  0.9325716  0.0931690    0.00000       Uiso       1.00
      H235          H  0.0448961  0.9360089  0.1348588    0.00000       Uiso       1.00
      H236          H  0.0442393  0.9361239  0.1680470    0.00000       Uiso       1.00
      H237          H  0.1046503  0.9211105  0.1309398    0.00000       Uiso       1.00
      C768          C  0.2296159  0.9310125  0.0770384    0.00000       Uiso       1.00
      C769          C  0.2112620  0.9315294  0.0766276    0.00000       Uiso       1.00
      C770          C  0.2120775  0.9338655  0.0586237    0.00000       Uiso       1.00
      C771          C  0.1932819  0.9334950  0.0581497    0.00000       Uiso       1.00
      C772          C  0.1728653  0.9295194  0.0751322    0.00000       Uiso       1.00
      C773          C  0.1723152  0.9267156  0.0928839    0.00000       Uiso       1.00
      C774          C  0.1914849  0.9292831  0.0947634    0.00000       Uiso       1.00
       O48          O  0.2500434  0.9326090  0.0605191    0.00000       Uiso       1.00
      H238          H  0.2274108  0.9360700  0.0449326    0.00000       Uiso       1.00
      H239          H  0.1949957  0.9361762  0.0442629    0.00000       Uiso       1.00
      H240          H  0.1566771  0.9212143  0.1047072    0.00000       Uiso       1.00
       B22          B  0.2619244  0.9305299  0.0698073    0.00000       Uiso       1.00
       B23          B  0.0697994  0.9305119  0.0699256    0.00000       Uiso       1.00
       B24          B  0.0699298  0.9305323  0.2619244    0.00000       Uiso       1.00
