data_88
_audit_creation_date              0000-00-00
_audit_creation_method            'LanYouShi'
_symmetry_space_group_name_H-M    'P1'
_cell_length_a                    74.4260025
_cell_length_b                    74.4260025
_cell_length_c                    74.4259033
_cell_angle_alpha                 120.0000000
_cell_angle_beta                  60.0000000
_cell_angle_gamma                 120.0000000
loop_
_atom_site_label
_atom_site_type_symbol
_atom_site_fract_x
_atom_site_fract_y
_atom_site_fract_z
_atom_site_U_iso_or_equiv
_atom_site_adp_type
_atom_site_occupancy
        C1          C  0.4610539  0.5873173  0.7135596    0.00000       Uiso       1.00
        C2          C  0.4626702  0.5662245  0.7021322    0.00000       Uiso       1.00
        C3          C  0.4662029  0.5565356  0.6792192    0.00000       Uiso       1.00
        C4          C  0.4626703  0.5985990  0.7021322    0.00000       Uiso       1.00
        C5          C  0.4660617  0.5889332  0.6792932    0.00000       Uiso       1.00
        C6          C  0.4680285  0.5676982  0.6672372    0.00000       Uiso       1.00
        H1          H  0.4018917  0.3289055  0.4601213    0.00000       Uiso       1.00
        H2          H  0.4613336  0.6157938  0.7112051    0.00000       Uiso       1.00
        H3          H  0.4613336  0.5567657  0.7112051    0.00000       Uiso       1.00
        C7          C  0.4126654  0.2865130  0.4127551    0.00000       Uiso       1.00
        C8          C  0.4013838  0.2979404  0.4338479    0.00000       Uiso       1.00
        C9          C  0.4110489  0.3207793  0.4436300    0.00000       Uiso       1.00
       C10          C  0.4337582  0.2979404  0.4014734    0.00000       Uiso       1.00
       C11          C  0.4434468  0.3208533  0.4111649    0.00000       Uiso       1.00
       C12          C  0.4322831  0.3328344  0.4324836    0.00000       Uiso       1.00
        H4          H  0.6710771  0.5399508  0.4669419    0.00000       Uiso       1.00
        H5          H  0.4432169  0.2888676  0.3842785    0.00000       Uiso       1.00
        H6          H  0.3841889  0.2888676  0.4433066    0.00000       Uiso       1.00
       C13          C  0.4126656  0.5389287  0.4127552    0.00000       Uiso       1.00
       C14          C  0.4337584  0.5373124  0.4014735    0.00000       Uiso       1.00
       C15          C  0.4435392  0.5339181  0.4111375    0.00000       Uiso       1.00
       C16          C  0.4013839  0.5373124  0.4338480    0.00000       Uiso       1.00
       C17          C  0.4110736  0.5337761  0.4435353    0.00000       Uiso       1.00
       C18          C  0.4323921  0.5319479  0.4323706    0.00000       Uiso       1.00
        H7          H  0.4668528  0.5980895  0.6711668    0.00000       Uiso       1.00
        H8          H  0.3841890  0.5386491  0.4433067    0.00000       Uiso       1.00
        H9          H  0.4432171  0.5386491  0.3842786    0.00000       Uiso       1.00
       C19          C  0.7134694  0.5873172  0.4611437    0.00000       Uiso       1.00
       C20          C  0.7020420  0.5985988  0.4627599    0.00000       Uiso       1.00
       C21          C  0.6791292  0.5889074  0.4662923    0.00000       Uiso       1.00
       C22          C  0.7020421  0.5662244  0.4627599    0.00000       Uiso       1.00
       C23          C  0.6792033  0.5564422  0.4661506    0.00000       Uiso       1.00
       C24          C  0.6671478  0.5675882  0.4681171    0.00000       Uiso       1.00
       H10          H  0.4600296  0.5331230  0.4019799    0.00000       Uiso       1.00
       C25          C  0.4999615  0.5000163  0.5000528    0.00000       Uiso       1.00
       H11          H  0.7111149  0.5567657  0.4614233    0.00000       Uiso       1.00
       H12          H  0.7111149  0.6157938  0.4614233    0.00000       Uiso       1.00
       C26          C  0.4686269  0.5335761  0.6672742    0.00000       Uiso       1.00
        O1          O  0.4717069  0.5247081  0.6473942    0.00000       Uiso       1.00
        O2          O  0.4673624  0.5231062  0.6787056    0.00000       Uiso       1.00
       H13          H  0.4691951  0.5090827  0.6689020    0.00000       Uiso       1.00
       C27          C  0.6671841  0.6023475  0.4687195    0.00000       Uiso       1.00
        O3          O  0.6473041  0.5944158  0.4717994    0.00000       Uiso       1.00
        O4          O  0.6786152  0.6229854  0.4674580    0.00000       Uiso       1.00
       H14          H  0.6688117  0.6290390  0.4692924    0.00000       Uiso       1.00
       C28          C  0.4664057  0.3327965  0.3977239    0.00000       Uiso       1.00
        O5          O  0.4752752  0.3526765  0.4056541    0.00000       Uiso       1.00
        O6          O  0.4768737  0.3213635  0.3770870    0.00000       Uiso       1.00
       H15          H  0.4908971  0.3311659  0.3710326    0.00000       Uiso       1.00
       C29          C  0.3976273  0.5313470  0.4664924    0.00000       Uiso       1.00
        O7          O  0.4055531  0.5282635  0.4753636    0.00000       Uiso       1.00
        O8          O  0.3769907  0.5326116  0.4769570    0.00000       Uiso       1.00
       H16          H  0.3709327  0.5307756  0.4909798    0.00000       Uiso       1.00
       C30          C  0.4720656  0.5574601  0.6424907    0.00000       Uiso       1.00
       C31          C  0.4636811  0.5344045  0.6322389    0.00000       Uiso       1.00
       C32          C  0.4675362  0.5248661  0.6092403    0.00000       Uiso       1.00
       C33          C  0.4844086  0.5706880  0.6288185    0.00000       Uiso       1.00
       C34          C  0.4881999  0.5613713  0.6058529    0.00000       Uiso       1.00
       C35          C  0.4797843  0.5383847  0.5960010    0.00000       Uiso       1.00
       H17          H  0.4914649  0.5883023  0.6359292    0.00000       Uiso       1.00
       H18          H  0.4538598  0.5237963  0.6421763    0.00000       Uiso       1.00
       C36          C  0.4425187  0.3575794  0.4429551    0.00000       Uiso       1.00
       C37          C  0.4292902  0.3712516  0.4575046    0.00000       Uiso       1.00
       C38          C  0.4386057  0.3942169  0.4673633    0.00000       Uiso       1.00
       C39          C  0.4655724  0.3678302  0.4385457    0.00000       Uiso       1.00
       C40          C  0.4751085  0.3908272  0.4481517    0.00000       Uiso       1.00
       C41          C  0.4615910  0.4040670  0.4626527    0.00000       Uiso       1.00
       H19          H  0.4761841  0.3578966  0.4278297    0.00000       Uiso       1.00
       H20          H  0.4116755  0.3641408  0.4609453    0.00000       Uiso       1.00
       C42          C  0.4428637  0.5279071  0.4426044    0.00000       Uiso       1.00
       C43          C  0.4574214  0.5155636  0.4293732    0.00000       Uiso       1.00
       C44          C  0.4672820  0.5117719  0.4386888    0.00000       Uiso       1.00
       C45          C  0.4384465  0.5362920  0.4656589    0.00000       Uiso       1.00
       C46          C  0.4480516  0.5324358  0.4751946    0.00000       Uiso       1.00
       C47          C  0.4625619  0.5201886  0.4616776    0.00000       Uiso       1.00
       H21          H  0.4277256  0.5461146  0.4762715    0.00000       Uiso       1.00
       H22          H  0.4608648  0.5085083  0.4117561    0.00000       Uiso       1.00
       C48          C  0.6424017  0.5571169  0.4721543    0.00000       Uiso       1.00
       C49          C  0.6321507  0.5615289  0.4637629    0.00000       Uiso       1.00
       C50          C  0.6091521  0.5519258  0.4676200    0.00000       Uiso       1.00
       C51          C  0.6287292  0.5425661  0.4845036    0.00000       Uiso       1.00
       C52          C  0.6057636  0.5327080  0.4882944    0.00000       Uiso       1.00
       C53          C  0.5959126  0.5374223  0.4798744    0.00000       Uiso       1.00
       H23          H  0.6358407  0.5391239  0.4915636    0.00000       Uiso       1.00
       H24          H  0.6420919  0.5722458  0.4539340    0.00000       Uiso       1.00
       C54          C  0.5990713  0.5566033  0.4594742    0.00000       Uiso       1.00
       C55          C  0.5762080  0.5472530  0.4636186    0.00000       Uiso       1.00
       C56          C  0.4980133  0.4009072  0.4434794    0.00000       Uiso       1.00
       C57          C  0.5073818  0.4237696  0.4528321    0.00000       Uiso       1.00
       H25          H  0.5087453  0.3910949  0.4324237    0.00000       Uiso       1.00
       H26          H  0.6088867  0.5676597  0.4499870    0.00000       Uiso       1.00
       C58          C  0.5659185  0.5531048  0.4545734    0.00000       Uiso       1.00
        O9          O  0.5459690  0.5451109  0.4580107    0.00000       Uiso       1.00
       O10          O  0.5788886  0.5671105  0.4427857    0.00000       Uiso       1.00
       H27          H  0.5699799  0.5690004  0.4383993    0.00000       Uiso       1.00
       C59          C  0.5325683  0.4340534  0.4469816    0.00000       Uiso       1.00
       O11          O  0.5410904  0.4540020  0.4549756    0.00000       Uiso       1.00
       O12          O  0.5453876  0.4210791  0.4329772    0.00000       Uiso       1.00
       H28          H  0.5605732  0.4299846  0.4310880    0.00000       Uiso       1.00
       C60          C  0.4837714  0.5288926  0.5728435    0.00000       Uiso       1.00
       C61          C  0.4757420  0.5058880  0.5629045    0.00000       Uiso       1.00
       C62          C  0.4802964  0.4964942  0.5397995    0.00000       Uiso       1.00
       C63          C  0.4960769  0.5424027  0.5596237    0.00000       Uiso       1.00
       C64          C  0.5002617  0.5328602  0.5366251    0.00000       Uiso       1.00
       C65          C  0.4924692  0.5097289  0.5260572    0.00000       Uiso       1.00
       H29          H  0.4565027  0.4734061  0.5067294    0.00000       Uiso       1.00
       H30          H  0.4712393  0.5252048  0.5212962    0.00000       Uiso       1.00
       C66          C  0.4710837  0.4272236  0.4723312    0.00000       Uiso       1.00
       C67          C  0.4575739  0.4404451  0.4867494    0.00000       Uiso       1.00
       C68          C  0.4671163  0.4634445  0.4960222    0.00000       Uiso       1.00
       C69          C  0.4940887  0.4371619  0.4673038    0.00000       Uiso       1.00
       C70          C  0.5034825  0.4602678  0.4764598    0.00000       Uiso       1.00
       C71          C  0.4902480  0.4740116  0.4912549    0.00000       Uiso       1.00
       H31          H  0.4747676  0.4787734  0.5327181    0.00000       Uiso       1.00
       H32          H  0.5265777  0.4933200  0.5102007    0.00000       Uiso       1.00
       C72          C  0.4722385  0.5162053  0.4711733    0.00000       Uiso       1.00
       C73          C  0.4866658  0.5039017  0.4576628    0.00000       Uiso       1.00
       C74          C  0.4959370  0.4997181  0.4672070    0.00000       Uiso       1.00
       C75          C  0.4672000  0.5242354  0.4941799    0.00000       Uiso       1.00
       C76          C  0.4763544  0.5196792  0.5035752    0.00000       Uiso       1.00
       C77          C  0.4911613  0.5075081  0.4903400    0.00000       Uiso       1.00
       H33          H  0.5326242  0.5287221  0.4748495    0.00000       Uiso       1.00
       H34          H  0.5101224  0.5434747  0.5266650    0.00000       Uiso       1.00
       C78          C  0.5727553  0.5277442  0.4838615    0.00000       Uiso       1.00
       C79          C  0.5628157  0.5327773  0.4758282    0.00000       Uiso       1.00
       C80          C  0.5397086  0.5236207  0.4803852    0.00000       Uiso       1.00
       C81          C  0.5595351  0.5133193  0.4961679    0.00000       Uiso       1.00
       C82          C  0.5365359  0.5040445  0.5003507    0.00000       Uiso       1.00
       C83          C  0.5259668  0.5088170  0.4925602    0.00000       Uiso       1.00
       H35          H  0.5066596  0.4898654  0.4565954    0.00000       Uiso       1.00
       H36          H  0.5212042  0.4673485  0.4713561    0.00000       Uiso       1.00
       C84          C  0.4527188  0.5364392  0.5074728    0.00000       Uiso       1.00
       C85          C  0.4433683  0.5405807  0.4981020    0.00000       Uiso       1.00
       C86          C  0.4913116  0.4956750  0.4347646    0.00000       Uiso       1.00
       C87          C  0.4817234  0.4995335  0.4254058    0.00000       Uiso       1.00
       C88          C  0.4635382  0.4925936  0.5762956    0.00000       Uiso       1.00
       C89          C  0.4593955  0.5019609  0.5991591    0.00000       Uiso       1.00
       C90          C  0.5043018  0.5653018  0.5696506    0.00000       Uiso       1.00
       C91          C  0.5004382  0.5746583  0.5924590    0.00000       Uiso       1.00
       C92          C  0.5695623  0.5086756  0.5043955    0.00000       Uiso       1.00
       C93          C  0.5923690  0.5182674  0.5005350    0.00000       Uiso       1.00
       C94          C  0.4346755  0.4304191  0.4913875    0.00000       Uiso       1.00
       C95          C  0.4253195  0.4076120  0.4817985    0.00000       Uiso       1.00
       H37          H  0.4239483  0.4402553  0.5023609    0.00000       Uiso       1.00
       H38          H  0.5022916  0.4860925  0.4240369    0.00000       Uiso       1.00
       H39          H  0.4323050  0.5500615  0.5088331    0.00000       Uiso       1.00
       H40          H  0.5070977  0.5923502  0.5996396    0.00000       Uiso       1.00
       H41          H  0.4571772  0.4748706  0.5690584    0.00000       Uiso       1.00
       H42          H  0.5597274  0.4976937  0.5139763    0.00000       Uiso       1.00
       C96          C  0.4459183  0.4867113  0.6131144    0.00000       Uiso       1.00
       O13          O  0.4388114  0.4666866  0.6042752    0.00000       Uiso       1.00
       O14          O  0.4418750  0.4953843  0.6352102    0.00000       Uiso       1.00
       H43          H  0.4333310  0.4837483  0.6413968    0.00000       Uiso       1.00
       C97          C  0.5179167  0.5805469  0.5556808    0.00000       Uiso       1.00
       O15          O  0.5250787  0.6005650  0.5645175    0.00000       Uiso       1.00
       O16          O  0.5220211  0.5718771  0.5335748    0.00000       Uiso       1.00
       H44          H  0.5306497  0.5835096  0.5273799    0.00000       Uiso       1.00
       C98          C  0.6025721  0.5127935  0.5100074    0.00000       Uiso       1.00
       O17          O  0.5908238  0.5001604  0.5207062    0.00000       Uiso       1.00
       O18          O  0.6245713  0.5219266  0.5065432    0.00000       Uiso       1.00
       H45          H  0.6282263  0.5168555  0.5134853    0.00000       Uiso       1.00
       C99          C  0.4468569  0.5454793  0.5326604    0.00000       Uiso       1.00
       O19          O  0.4341933  0.5561450  0.5442536    0.00000       Uiso       1.00
       O20          O  0.4556813  0.5416700  0.5420851    0.00000       Uiso       1.00
       H46          H  0.4503927  0.5483699  0.5577757    0.00000       Uiso       1.00
      C100          C  0.4872002  0.4900604  0.4002558    0.00000       Uiso       1.00
       O21          O  0.4998345  0.4793629  0.3886746    0.00000       Uiso       1.00
       O22          O  0.4780677  0.4935218  0.3908512    0.00000       Uiso       1.00
       H47          H  0.4831406  0.4865796  0.3751831    0.00000       Uiso       1.00
      C101          C  0.4001707  0.3974109  0.4872661    0.00000       Uiso       1.00
       O23          O  0.3885882  0.4091606  0.4998946    0.00000       Uiso       1.00
       O24          O  0.3907685  0.3754121  0.4781317    0.00000       Uiso       1.00
       H48          H  0.3751009  0.3717584  0.4831987    0.00000       Uiso       1.00
      C102          C  0.8837984  0.5873172  0.7135596    0.00000       Uiso       1.00
      C103          C  0.9048911  0.5985989  0.7021322    0.00000       Uiso       1.00
      C104          C  0.9145799  0.5889075  0.6792193    0.00000       Uiso       1.00
      C105          C  0.8725167  0.5662245  0.7021322    0.00000       Uiso       1.00
      C106          C  0.8821824  0.5564426  0.6792933    0.00000       Uiso       1.00
      C107          C  0.9034173  0.5675885  0.6672373    0.00000       Uiso       1.00
       H49          H  0.1422106  0.5331288  0.4601214    0.00000       Uiso       1.00
       H50          H  0.8553218  0.5567657  0.7112051    0.00000       Uiso       1.00
       H51          H  0.9143498  0.6157938  0.7112051    0.00000       Uiso       1.00
      C108          C  0.1846031  0.5389287  0.4127552    0.00000       Uiso       1.00
      C109          C  0.1731757  0.5373125  0.4338480    0.00000       Uiso       1.00
      C110          C  0.1503369  0.5339208  0.4436300    0.00000       Uiso       1.00
      C111          C  0.1731757  0.5373125  0.4014735    0.00000       Uiso       1.00
      C112          C  0.1502628  0.5337796  0.4111649    0.00000       Uiso       1.00
      C113          C  0.1382817  0.5319535  0.4324836    0.00000       Uiso       1.00
       H52          H  0.9311647  0.5980895  0.4669420    0.00000       Uiso       1.00
       H53          H  0.1822485  0.5386491  0.3842785    0.00000       Uiso       1.00
       H54          H  0.1822485  0.5386491  0.4433067    0.00000       Uiso       1.00
      C114          C  0.9321868  0.2865133  0.4127553    0.00000       Uiso       1.00
      C115          C  0.9338030  0.2979407  0.4014736    0.00000       Uiso       1.00
      C116          C  0.9371974  0.3207799  0.4111376    0.00000       Uiso       1.00
      C117          C  0.9338030  0.2979407  0.4338481    0.00000       Uiso       1.00
      C118          C  0.9373394  0.3208540  0.4435354    0.00000       Uiso       1.00
      C119          C  0.9391676  0.3328360  0.4323707    0.00000       Uiso       1.00
       H55          H  0.8730261  0.5399511  0.6711669    0.00000       Uiso       1.00
       H56          H  0.9324663  0.2888679  0.4433068    0.00000       Uiso       1.00
       H57          H  0.9324664  0.2888678  0.3842787    0.00000       Uiso       1.00
      C120          C  0.8837984  0.5873172  0.4611437    0.00000       Uiso       1.00
      C121          C  0.8725167  0.5662243  0.4627600    0.00000       Uiso       1.00
      C122          C  0.8822082  0.5565354  0.4662923    0.00000       Uiso       1.00
      C123          C  0.9048912  0.5985988  0.4627600    0.00000       Uiso       1.00
      C124          C  0.9146734  0.5889328  0.4661506    0.00000       Uiso       1.00
      C125          C  0.9035274  0.5676979  0.4681172    0.00000       Uiso       1.00
       H58          H  0.9379926  0.3289078  0.4019800    0.00000       Uiso       1.00
      C126          C  0.9710993  0.5000192  0.5000528    0.00000       Uiso       1.00
       H59          H  0.9143499  0.6157937  0.4614233    0.00000       Uiso       1.00
       H60          H  0.8553218  0.5567657  0.4614233    0.00000       Uiso       1.00
      C127          C  0.9375395  0.6023459  0.6672742    0.00000       Uiso       1.00
       O25          O  0.9464074  0.5944140  0.6473942    0.00000       Uiso       1.00
       O26          O  0.9480094  0.6229827  0.6787056    0.00000       Uiso       1.00
       H61          H  0.9620329  0.6290355  0.6689021    0.00000       Uiso       1.00
      C128          C  0.8687680  0.5335773  0.4687195    0.00000       Uiso       1.00
       O27          O  0.8766997  0.5247088  0.4717994    0.00000       Uiso       1.00
       O28          O  0.8481301  0.5231090  0.4674580    0.00000       Uiso       1.00
       H62          H  0.8420764  0.5090862  0.4692925    0.00000       Uiso       1.00
      C129          C  0.1383196  0.5313543  0.3977239    0.00000       Uiso       1.00
       O29          O  0.1184396  0.5282740  0.4056541    0.00000       Uiso       1.00
       O30          O  0.1497526  0.5326185  0.3770871    0.00000       Uiso       1.00
       H63          H  0.1399502  0.5307851  0.3710327    0.00000       Uiso       1.00
      C130          C  0.9397684  0.3327938  0.4664925    0.00000       Uiso       1.00
       O31          O  0.9428520  0.3526744  0.4753637    0.00000       Uiso       1.00
       O32          O  0.9385039  0.3213573  0.4769571    0.00000       Uiso       1.00
       H64          H  0.9403399  0.3311580  0.4909799    0.00000       Uiso       1.00
      C131          C  0.9136555  0.5571173  0.6424907    0.00000       Uiso       1.00
      C132          C  0.9367111  0.5615365  0.6322389    0.00000       Uiso       1.00
      C133          C  0.9462494  0.5519314  0.6092403    0.00000       Uiso       1.00
      C134          C  0.9004276  0.5425602  0.6288186    0.00000       Uiso       1.00
      C135          C  0.9097443  0.5327026  0.6058530    0.00000       Uiso       1.00
      C136          C  0.9327308  0.5374216  0.5960010    0.00000       Uiso       1.00
       H65          H  0.8828133  0.5391129  0.6359293    0.00000       Uiso       1.00
       H66          H  0.9473193  0.5722610  0.6421764    0.00000       Uiso       1.00
      C137          C  0.1135367  0.5279157  0.4429552    0.00000       Uiso       1.00
      C138          C  0.0998646  0.5155644  0.4575046    0.00000       Uiso       1.00
      C139          C  0.0768993  0.5117733  0.4673633    0.00000       Uiso       1.00
      C140          C  0.1032859  0.5363092  0.4385457    0.00000       Uiso       1.00
      C141          C  0.0802889  0.5324543  0.4481518    0.00000       Uiso       1.00
      C142          C  0.0670491  0.5201979  0.4626528    0.00000       Uiso       1.00
       H67          H  0.1132195  0.5461384  0.4278297    0.00000       Uiso       1.00
       H68          H  0.1069753  0.5085012  0.4609453    0.00000       Uiso       1.00
      C143          C  0.9432083  0.3575823  0.4426045    0.00000       Uiso       1.00
      C144          C  0.9555519  0.3712523  0.4293733    0.00000       Uiso       1.00
      C145          C  0.9593436  0.3942202  0.4386888    0.00000       Uiso       1.00
      C146          C  0.9348235  0.3678347  0.4656590    0.00000       Uiso       1.00
      C147          C  0.9386796  0.3908316  0.4751947    0.00000       Uiso       1.00
      C148          C  0.9509270  0.4040721  0.4616776    0.00000       Uiso       1.00
       H69          H  0.9250009  0.3579036  0.4762716    0.00000       Uiso       1.00
       H70          H  0.9626072  0.3641339  0.4117562    0.00000       Uiso       1.00
      C149          C  0.9139987  0.5574604  0.4721544    0.00000       Uiso       1.00
      C150          C  0.9095866  0.5344058  0.4637629    0.00000       Uiso       1.00
      C151          C  0.9191898  0.5248676  0.4676201    0.00000       Uiso       1.00
      C152          C  0.9285494  0.5706878  0.4845037    0.00000       Uiso       1.00
      C153          C  0.9384075  0.5613712  0.4882945    0.00000       Uiso       1.00
      C154          C  0.9336932  0.5383858  0.4798744    0.00000       Uiso       1.00
       H71          H  0.9319916  0.5883015  0.4915636    0.00000       Uiso       1.00
       H72          H  0.8988698  0.5238013  0.4539340    0.00000       Uiso       1.00
      C155          C  0.9145122  0.5019634  0.4594743    0.00000       Uiso       1.00
      C156          C  0.9238625  0.4925948  0.4636187    0.00000       Uiso       1.00
      C157          C  0.0702089  0.5406067  0.4434794    0.00000       Uiso       1.00
      C158          C  0.0473465  0.5364655  0.4528321    0.00000       Uiso       1.00
       H73          H  0.0800212  0.5500953  0.4324237    0.00000       Uiso       1.00
       H74          H  0.9034558  0.4912352  0.4499871    0.00000       Uiso       1.00
      C159          C  0.9180108  0.4674083  0.4545734    0.00000       Uiso       1.00
       O33          O  0.9260046  0.4588901  0.4580108    0.00000       Uiso       1.00
       O34          O  0.9040050  0.4545850  0.4427857    0.00000       Uiso       1.00
       H75          H  0.9021150  0.4394000  0.4383994    0.00000       Uiso       1.00
      C160          C  0.0370627  0.5455178  0.4469816    0.00000       Uiso       1.00
       O35          O  0.0171141  0.5420852  0.4549757    0.00000       Uiso       1.00
       O36          O  0.0500370  0.5573069  0.4329773    0.00000       Uiso       1.00
       H76          H  0.0411316  0.5616980  0.4310881    0.00000       Uiso       1.00
      C161          C  0.9422230  0.5277435  0.5728436    0.00000       Uiso       1.00
      C162          C  0.9652275  0.5327797  0.5629046    0.00000       Uiso       1.00
      C163          C  0.9746214  0.5236229  0.5397995    0.00000       Uiso       1.00
      C164          C  0.9287129  0.5133190  0.5596237    0.00000       Uiso       1.00
      C165          C  0.9382554  0.5040478  0.5366251    0.00000       Uiso       1.00
      C166          C  0.9613867  0.5088186  0.5260572    0.00000       Uiso       1.00
       H77          H  0.9977095  0.4898472  0.5067295    0.00000       Uiso       1.00
       H78          H  0.9459108  0.4673519  0.5212963    0.00000       Uiso       1.00
      C167          C  0.0438926  0.5162126  0.4723312    0.00000       Uiso       1.00
      C168          C  0.0306710  0.5038993  0.4867494    0.00000       Uiso       1.00
      C169          C  0.0076716  0.4997151  0.4960222    0.00000       Uiso       1.00
      C170          C  0.0339543  0.5242519  0.4673038    0.00000       Uiso       1.00
      C171          C  0.0108484  0.5196957  0.4764598    0.00000       Uiso       1.00
      C172          C  0.9971039  0.5075125  0.4912550    0.00000       Uiso       1.00
       H79          H  0.9923422  0.5287335  0.5327182    0.00000       Uiso       1.00
       H80          H  0.9777955  0.5434795  0.5102007    0.00000       Uiso       1.00
      C173          C  0.9549103  0.4272277  0.4711733    0.00000       Uiso       1.00
      C174          C  0.9672139  0.4404481  0.4576629    0.00000       Uiso       1.00
      C175          C  0.9713974  0.4634472  0.4672071    0.00000       Uiso       1.00
      C176          C  0.9468802  0.4371658  0.4941800    0.00000       Uiso       1.00
      C177          C  0.9514363  0.4602717  0.5035753    0.00000       Uiso       1.00
      C178          C  0.9636074  0.4740144  0.4903400    0.00000       Uiso       1.00
       H81          H  0.9423934  0.4787729  0.4748496    0.00000       Uiso       1.00
       H82          H  0.9276409  0.4933339  0.5266651    0.00000       Uiso       1.00
      C179          C  0.9433713  0.5288938  0.4838615    0.00000       Uiso       1.00
      C180          C  0.9383382  0.5058877  0.4758283    0.00000       Uiso       1.00
      C181          C  0.9474949  0.4964944  0.4803853    0.00000       Uiso       1.00
      C182          C  0.9577963  0.5424050  0.4961679    0.00000       Uiso       1.00
      C183          C  0.9670711  0.5328633  0.5003508    0.00000       Uiso       1.00
      C184          C  0.9622985  0.5097311  0.4925602    0.00000       Uiso       1.00
       H83          H  0.9812502  0.4734108  0.4565955    0.00000       Uiso       1.00
       H84          H  0.0037676  0.5252330  0.4713561    0.00000       Uiso       1.00
      C185          C  0.9346763  0.4237736  0.5074729    0.00000       Uiso       1.00
      C186          C  0.9305348  0.4009108  0.4981021    0.00000       Uiso       1.00
      C187          C  0.9754405  0.4304224  0.4347646    0.00000       Uiso       1.00
      C188          C  0.9715820  0.4076169  0.4254058    0.00000       Uiso       1.00
      C189          C  0.9785220  0.5472614  0.5762956    0.00000       Uiso       1.00
      C190          C  0.9691546  0.5566148  0.5991592    0.00000       Uiso       1.00
      C191          C  0.9058137  0.5086718  0.5696507    0.00000       Uiso       1.00
      C192          C  0.8964573  0.5182599  0.5924590    0.00000       Uiso       1.00
      C193          C  0.9624400  0.5653034  0.5043955    0.00000       Uiso       1.00
      C194          C  0.9528481  0.5746578  0.5005351    0.00000       Uiso       1.00
      C195          C  0.0406970  0.4956650  0.4913875    0.00000       Uiso       1.00
      C196          C  0.0635041  0.4995272  0.4817985    0.00000       Uiso       1.00
       H85          H  0.0308608  0.4860750  0.5023609    0.00000       Uiso       1.00
       H86          H  0.9850229  0.4402572  0.4240370    0.00000       Uiso       1.00
       H87          H  0.9210540  0.3910978  0.5088332    0.00000       Uiso       1.00
       H88          H  0.8787653  0.5144082  0.5996397    0.00000       Uiso       1.00
       H89          H  0.9962449  0.5513860  0.5690584    0.00000       Uiso       1.00
       H90          H  0.9734219  0.5760312  0.5139763    0.00000       Uiso       1.00
      C197          C  0.9844043  0.5723425  0.6131144    0.00000       Uiso       1.00
       O37          O  0.0044295  0.5764211  0.6042752    0.00000       Uiso       1.00
       O38          O  0.9757313  0.5817220  0.6352103    0.00000       Uiso       1.00
       H91          H  0.9873673  0.5910005  0.6413968    0.00000       Uiso       1.00
      C198          C  0.8905686  0.4930717  0.5556809    0.00000       Uiso       1.00
       O39          O  0.8705505  0.4890524  0.5645176    0.00000       Uiso       1.00
       O40          O  0.8992383  0.4837399  0.5335749    0.00000       Uiso       1.00
       H92          H  0.8876059  0.4745411  0.5273800    0.00000       Uiso       1.00
      C199          C  0.9583221  0.5998073  0.5100075    0.00000       Uiso       1.00
       O41          O  0.9709551  0.6113908  0.5207063    0.00000       Uiso       1.00
       O42          O  0.9491889  0.6092090  0.5065432    0.00000       Uiso       1.00
       H93          H  0.9542601  0.6248772  0.5134853    0.00000       Uiso       1.00
      C200          C  0.9256362  0.4340592  0.5326605    0.00000       Uiso       1.00
       O43          O  0.9149706  0.4223232  0.5442537    0.00000       Uiso       1.00
       O44          O  0.9294456  0.4561175  0.5420851    0.00000       Uiso       1.00
       H94          H  0.9227456  0.4598196  0.5577758    0.00000       Uiso       1.00
      C201          C  0.9810551  0.3974170  0.4002559    0.00000       Uiso       1.00
       O45          O  0.9917526  0.4091675  0.3886747    0.00000       Uiso       1.00
       O46          O  0.9775936  0.3754183  0.3908513    0.00000       Uiso       1.00
       H95          H  0.9845359  0.3717655  0.3751832    0.00000       Uiso       1.00
      C202          C  0.0737052  0.4900470  0.4872661    0.00000       Uiso       1.00
       O47          O  0.0619555  0.4793434  0.4998946    0.00000       Uiso       1.00
       O48          O  0.0957040  0.4935094  0.4781318    0.00000       Uiso       1.00
       H96          H  0.0993577  0.4865623  0.4831988    0.00000       Uiso       1.00
      C203          C  0.8837984  0.0100622  0.7135595    0.00000       Uiso       1.00
      C204          C  0.8725168  0.0084459  0.7021321    0.00000       Uiso       1.00
      C205          C  0.8822081  0.0049133  0.6792192    0.00000       Uiso       1.00
      C206          C  0.9048912  0.0084459  0.7021321    0.00000       Uiso       1.00
      C207          C  0.9146730  0.0050545  0.6792931    0.00000       Uiso       1.00
      C208          C  0.9035271  0.0030877  0.6672372    0.00000       Uiso       1.00
       H97          H  0.9379869  0.0692244  0.4601212    0.00000       Uiso       1.00
       H98          H  0.9143499  0.0097826  0.7112050    0.00000       Uiso       1.00
       H99          H  0.8553218  0.0097826  0.7112050    0.00000       Uiso       1.00
      C209          C  0.9321868  0.0584507  0.4127550    0.00000       Uiso       1.00
      C210          C  0.9338031  0.0697323  0.4338478    0.00000       Uiso       1.00
      C211          C  0.9371948  0.0600672  0.4436298    0.00000       Uiso       1.00
      C212          C  0.9338031  0.0373579  0.4014733    0.00000       Uiso       1.00
      C213          C  0.9373359  0.0276693  0.4111648    0.00000       Uiso       1.00
      C214          C  0.9391621  0.0388330  0.4324835    0.00000       Uiso       1.00
      H100          H  0.8730261  0.8000384  0.4669419    0.00000       Uiso       1.00
      H101          H  0.9324665  0.0278992  0.3842784    0.00000       Uiso       1.00
      H102          H  0.9324665  0.0869273  0.4433065    0.00000       Uiso       1.00
      C215          C  0.1846029  0.0584505  0.4127551    0.00000       Uiso       1.00
      C216          C  0.1731755  0.0373577  0.4014735    0.00000       Uiso       1.00
      C217          C  0.1503363  0.0275769  0.4111374    0.00000       Uiso       1.00
      C218          C  0.1731755  0.0697322  0.4338480    0.00000       Uiso       1.00
      C219          C  0.1502622  0.0600425  0.4435352    0.00000       Uiso       1.00
      C220          C  0.1382801  0.0387240  0.4323705    0.00000       Uiso       1.00
      H103          H  0.9311645  0.0042634  0.6711667    0.00000       Uiso       1.00
      H104          H  0.1822484  0.0869271  0.4433067    0.00000       Uiso       1.00
      H105          H  0.1822483  0.0278990  0.3842785    0.00000       Uiso       1.00
      C221          C  0.8837984  0.7576461  0.4611436    0.00000       Uiso       1.00
      C222          C  0.9048912  0.7690734  0.4627599    0.00000       Uiso       1.00
      C223          C  0.9145802  0.7919863  0.4662923    0.00000       Uiso       1.00
      C224          C  0.8725167  0.7690734  0.4627599    0.00000       Uiso       1.00
      C225          C  0.8821827  0.7919123  0.4661505    0.00000       Uiso       1.00
      C226          C  0.9034176  0.8039678  0.4681171    0.00000       Uiso       1.00
      H106          H  0.1422084  0.0110865  0.4019798    0.00000       Uiso       1.00
      C227          C  0.9710964  0.9711540  0.5000527    0.00000       Uiso       1.00
      H107          H  0.8553218  0.7600006  0.4614233    0.00000       Uiso       1.00
      H108          H  0.9143499  0.7600006  0.4614233    0.00000       Uiso       1.00
      C228          C  0.8687696  0.0024893  0.6672742    0.00000       Uiso       1.00
       O49          O  0.8767016  0.9994087  0.6473941    0.00000       Uiso       1.00
       O50          O  0.8481328  0.0037538  0.6787055    0.00000       Uiso       1.00
      H109          H  0.8420802  0.0019211  0.6689020    0.00000       Uiso       1.00
      C229          C  0.9375383  0.8039314  0.4687195    0.00000       Uiso       1.00
       O51          O  0.9464067  0.8238114  0.4717993    0.00000       Uiso       1.00
       O52          O  0.9480066  0.7925003  0.4674580    0.00000       Uiso       1.00
      H110          H  0.9620294  0.8023039  0.4692924    0.00000       Uiso       1.00
      C230          C  0.9397613  0.0047104  0.3977238    0.00000       Uiso       1.00
       O53          O  0.9428416  0.9958403  0.4056540    0.00000       Uiso       1.00
       O54          O  0.9384970  0.9942418  0.3770869    0.00000       Uiso       1.00
      H111          H  0.9403305  0.9802184  0.3710325    0.00000       Uiso       1.00
      C231          C  0.1383223  0.0734888  0.4664924    0.00000       Uiso       1.00
       O55          O  0.1184418  0.0655631  0.4753635    0.00000       Uiso       1.00
       O56          O  0.1497589  0.0941254  0.4769570    0.00000       Uiso       1.00
      H112          H  0.1399582  0.1001834  0.4909797    0.00000       Uiso       1.00
      C232          C  0.9139983  0.9990500  0.6424907    0.00000       Uiso       1.00
      C233          C  0.9095791  0.0074351  0.6322388    0.00000       Uiso       1.00
      C234          C  0.9191841  0.0035799  0.6092402    0.00000       Uiso       1.00
      C235          C  0.9285554  0.9867070  0.6288185    0.00000       Uiso       1.00
      C236          C  0.9384130  0.9829156  0.6058528    0.00000       Uiso       1.00
      C237          C  0.9336939  0.9913312  0.5960009    0.00000       Uiso       1.00
      H113          H  0.9320027  0.9796507  0.6359292    0.00000       Uiso       1.00
      H114          H  0.8988547  0.0172563  0.6421763    0.00000       Uiso       1.00
      C238          C  0.9431999  0.0285974  0.4429550    0.00000       Uiso       1.00
      C239          C  0.9555511  0.0418259  0.4575045    0.00000       Uiso       1.00
      C240          C  0.9593422  0.0325104  0.4673632    0.00000       Uiso       1.00
      C241          C  0.9348065  0.0055437  0.4385456    0.00000       Uiso       1.00
      C242          C  0.9386613  0.9960070  0.4481516    0.00000       Uiso       1.00
      C243          C  0.9509177  0.0095251  0.4626527    0.00000       Uiso       1.00
      H115          H  0.9249771  0.9949314  0.4278296    0.00000       Uiso       1.00
      H116          H  0.9626144  0.0594406  0.4609452    0.00000       Uiso       1.00
      C244          C  0.1135339  0.0282524  0.4426044    0.00000       Uiso       1.00
      C245          C  0.0998639  0.0136947  0.4293732    0.00000       Uiso       1.00
      C246          C  0.0768960  0.0038341  0.4386887    0.00000       Uiso       1.00
      C247          C  0.1032815  0.0326696  0.4656588    0.00000       Uiso       1.00
      C248          C  0.0802846  0.0230646  0.4751946    0.00000       Uiso       1.00
      C249          C  0.0670441  0.0085542  0.4616775    0.00000       Uiso       1.00
      H117          H  0.1132126  0.0433906  0.4762714    0.00000       Uiso       1.00
      H118          H  0.1069823  0.0102513  0.4117560    0.00000       Uiso       1.00
      C250          C  0.9136552  0.8287138  0.4721543    0.00000       Uiso       1.00
      C251          C  0.9367097  0.8389649  0.4637628    0.00000       Uiso       1.00
      C252          C  0.9462480  0.8619634  0.4676200    0.00000       Uiso       1.00
      C253          C  0.9004278  0.8423864  0.4845036    0.00000       Uiso       1.00
      C254          C  0.9097444  0.8653519  0.4882944    0.00000       Uiso       1.00
      C255          C  0.9327298  0.8752030  0.4798743    0.00000       Uiso       1.00
      H119          H  0.8828140  0.8352749  0.4915636    0.00000       Uiso       1.00
      H120          H  0.9473143  0.8290237  0.4539339    0.00000       Uiso       1.00
      C256          C  0.9691522  0.8720443  0.4594742    0.00000       Uiso       1.00
      C257          C  0.9785208  0.8949076  0.4636186    0.00000       Uiso       1.00
      C258          C  0.9305089  0.9731022  0.4434793    0.00000       Uiso       1.00
      C259          C  0.9346502  0.9637337  0.4528320    0.00000       Uiso       1.00
      H121          H  0.9210203  0.9623702  0.4324236    0.00000       Uiso       1.00
      H122          H  0.9798804  0.8622289  0.4499870    0.00000       Uiso       1.00
      C260          C  0.0037078  0.9051970  0.4545733    0.00000       Uiso       1.00
       O57          O  0.0122261  0.9251465  0.4580107    0.00000       Uiso       1.00
       O58          O  0.0165311  0.8922269  0.4427857    0.00000       Uiso       1.00
      H123          H  0.0317161  0.9011356  0.4383993    0.00000       Uiso       1.00
      C261          C  0.9255978  0.9385472  0.4469815    0.00000       Uiso       1.00
       O59          O  0.9290304  0.9300252  0.4549755    0.00000       Uiso       1.00
       O60          O  0.9138086  0.9257279  0.4329771    0.00000       Uiso       1.00
      H124          H  0.9094176  0.9105422  0.4310879    0.00000       Uiso       1.00
      C262          C  0.9433722  0.9873441  0.5728434    0.00000       Uiso       1.00
      C263          C  0.9383360  0.9953735  0.5629045    0.00000       Uiso       1.00
      C264          C  0.9474927  0.9908191  0.5397994    0.00000       Uiso       1.00
      C265          C  0.9577966  0.9750386  0.5596236    0.00000       Uiso       1.00
      C266          C  0.9670678  0.9708537  0.5366250    0.00000       Uiso       1.00
      C267          C  0.9622970  0.9786464  0.5260571    0.00000       Uiso       1.00
      H125          H  0.9812684  0.0146135  0.5067294    0.00000       Uiso       1.00
      H126          H  0.0037643  0.9998762  0.5212961    0.00000       Uiso       1.00
      C268          C  0.9549029  0.0000324  0.4723311    0.00000       Uiso       1.00
      C269          C  0.9672162  0.0135422  0.4867493    0.00000       Uiso       1.00
      C270          C  0.9714005  0.0039998  0.4960221    0.00000       Uiso       1.00
      C271          C  0.9468637  0.9770268  0.4673037    0.00000       Uiso       1.00
      C272          C  0.9514199  0.9676330  0.4764597    0.00000       Uiso       1.00
      C273          C  0.9636031  0.9808676  0.4912548    0.00000       Uiso       1.00
      H127          H  0.9423822  0.9963480  0.5327181    0.00000       Uiso       1.00
      H128          H  0.9276361  0.9445378  0.5102006    0.00000       Uiso       1.00
      C274          C  0.0438885  0.9988770  0.4711732    0.00000       Uiso       1.00
      C275          C  0.0306680  0.9844497  0.4576628    0.00000       Uiso       1.00
      C276          C  0.0076689  0.9751785  0.4672070    0.00000       Uiso       1.00
      C277          C  0.0339504  0.0039161  0.4941799    0.00000       Uiso       1.00
      C278          C  0.0108445  0.9947610  0.5035751    0.00000       Uiso       1.00
      C279          C  0.9971012  0.9799542  0.4903399    0.00000       Uiso       1.00
      H129          H  0.9923427  0.9384913  0.4748495    0.00000       Uiso       1.00
      H130          H  0.9777817  0.9609932  0.5266650    0.00000       Uiso       1.00
      C280          C  0.9422218  0.8983603  0.4838614    0.00000       Uiso       1.00
      C281          C  0.9652278  0.9082999  0.4758282    0.00000       Uiso       1.00
      C282          C  0.9746212  0.9314069  0.4803852    0.00000       Uiso       1.00
      C283          C  0.9287106  0.9115804  0.4961678    0.00000       Uiso       1.00
      C284          C  0.9382523  0.9345797  0.5003507    0.00000       Uiso       1.00
      C285          C  0.9613845  0.9451488  0.4925601    0.00000       Uiso       1.00
      H131          H  0.9977047  0.9644559  0.4565954    0.00000       Uiso       1.00
      H132          H  0.9458826  0.9499112  0.4713560    0.00000       Uiso       1.00
      C286          C  0.0473426  0.0183973  0.5074728    0.00000       Uiso       1.00
      C287          C  0.0702054  0.0277478  0.4981019    0.00000       Uiso       1.00
      C288          C  0.0406938  0.9798040  0.4347645    0.00000       Uiso       1.00
      C289          C  0.0634993  0.9893922  0.4254057    0.00000       Uiso       1.00
      C290          C  0.9238542  0.0075779  0.5762955    0.00000       Uiso       1.00
      C291          C  0.9145008  0.0117207  0.5991591    0.00000       Uiso       1.00
      C292          C  0.9624438  0.9668137  0.5696505    0.00000       Uiso       1.00
      C293          C  0.9528558  0.9706774  0.5924588    0.00000       Uiso       1.00
      C294          C  0.9058122  0.9015532  0.5043954    0.00000       Uiso       1.00
      C295          C  0.8964578  0.8787466  0.5005350    0.00000       Uiso       1.00
      C296          C  0.9754506  0.0364406  0.4913874    0.00000       Uiso       1.00
      C297          C  0.9715884  0.0457966  0.4817984    0.00000       Uiso       1.00
      H133          H  0.9850407  0.0471678  0.5023608    0.00000       Uiso       1.00
      H134          H  0.0308590  0.9688239  0.4240369    0.00000       Uiso       1.00
      H135          H  0.0800184  0.0388111  0.5088331    0.00000       Uiso       1.00
      H136          H  0.9567074  0.9640179  0.5996396    0.00000       Uiso       1.00
      H137          H  0.9197297  0.0139389  0.5690582    0.00000       Uiso       1.00
      H138          H  0.8950844  0.9113881  0.5139763    0.00000       Uiso       1.00
      C298          C  0.8987731  0.0251978  0.6131142    0.00000       Uiso       1.00
       O61          O  0.8946946  0.0323047  0.6042751    0.00000       Uiso       1.00
       O62          O  0.8893936  0.0292411  0.6352102    0.00000       Uiso       1.00
      H139          H  0.8801152  0.0377851  0.6413966    0.00000       Uiso       1.00
      C299          C  0.9780439  0.9531989  0.5556808    0.00000       Uiso       1.00
       O63          O  0.9820632  0.9460369  0.5645175    0.00000       Uiso       1.00
       O64          O  0.9873756  0.9490944  0.5335748    0.00000       Uiso       1.00
      H140          H  0.9965746  0.9404659  0.5273799    0.00000       Uiso       1.00
      C300          C  0.8713083  0.8685433  0.5100074    0.00000       Uiso       1.00
       O65          O  0.8597248  0.8802917  0.5207062    0.00000       Uiso       1.00
       O66          O  0.8619065  0.8465442  0.5065432    0.00000       Uiso       1.00
      H141          H  0.8462384  0.8428892  0.5134852    0.00000       Uiso       1.00
      C301          C  0.0370570  0.0242592  0.5326604    0.00000       Uiso       1.00
       O67          O  0.0487930  0.0369228  0.5442536    0.00000       Uiso       1.00
       O68          O  0.0149987  0.0154349  0.5420850    0.00000       Uiso       1.00
      H142          H  0.0112966  0.0207235  0.5577757    0.00000       Uiso       1.00
      C302          C  0.0736992  0.9839153  0.4002558    0.00000       Uiso       1.00
       O69          O  0.0619487  0.9712810  0.3886746    0.00000       Uiso       1.00
       O70          O  0.0956978  0.9930478  0.3908511    0.00000       Uiso       1.00
      H143          H  0.0993507  0.9879749  0.3751831    0.00000       Uiso       1.00
      C303          C  0.9810685  0.0709454  0.4872660    0.00000       Uiso       1.00
       O71          O  0.9917723  0.0825279  0.4998945    0.00000       Uiso       1.00
       O72          O  0.9776062  0.0803476  0.4781317    0.00000       Uiso       1.00
      H144          H  0.9845532  0.0960153  0.4831986    0.00000       Uiso       1.00
      C304          C  0.7134696  0.0100623  0.8838887    0.00000       Uiso       1.00
      C305          C  0.7020422  0.0084460  0.9049814    0.00000       Uiso       1.00
      C306          C  0.6791293  0.0049134  0.9146703    0.00000       Uiso       1.00
      C307          C  0.7020422  0.0084460  0.8726069    0.00000       Uiso       1.00
      C308          C  0.6792032  0.0050546  0.8822727    0.00000       Uiso       1.00
      C309          C  0.6671472  0.0030878  0.9035077    0.00000       Uiso       1.00
      H145          H  0.4600317  0.0692244  0.1423000    0.00000       Uiso       1.00
      H146          H  0.7111151  0.0097826  0.8554120    0.00000       Uiso       1.00
      H147          H  0.7111150  0.0097827  0.9144402    0.00000       Uiso       1.00
      C310          C  0.4126656  0.0584507  0.1846925    0.00000       Uiso       1.00
      C311          C  0.4337584  0.0697323  0.1732651    0.00000       Uiso       1.00
      C312          C  0.4435404  0.0600672  0.1504262    0.00000       Uiso       1.00
      C313          C  0.4013839  0.0373579  0.1732651    0.00000       Uiso       1.00
      C314          C  0.4110754  0.0276693  0.1503521    0.00000       Uiso       1.00
      C315          C  0.4323941  0.0388330  0.1383711    0.00000       Uiso       1.00
      H148          H  0.4668522  0.8000385  0.9312551    0.00000       Uiso       1.00
      H149          H  0.3841890  0.0278992  0.1823379    0.00000       Uiso       1.00
      H150          H  0.4432171  0.0869272  0.1823379    0.00000       Uiso       1.00
      C316          C  0.4126656  0.0584507  0.9322771    0.00000       Uiso       1.00
      C317          C  0.4013840  0.0373579  0.9338934    0.00000       Uiso       1.00
      C318          C  0.4110479  0.0275770  0.9372878    0.00000       Uiso       1.00
      C319          C  0.4337585  0.0697324  0.9338934    0.00000       Uiso       1.00
      C320          C  0.4434456  0.0600427  0.9374298    0.00000       Uiso       1.00
      C321          C  0.4322810  0.0387242  0.9392580    0.00000       Uiso       1.00
      H151          H  0.6710769  0.0042635  0.8731164    0.00000       Uiso       1.00
      H152          H  0.4432172  0.0869273  0.9325567    0.00000       Uiso       1.00
      H153          H  0.3841891  0.0278992  0.9325567    0.00000       Uiso       1.00
      C322          C  0.4610539  0.7576462  0.8838887    0.00000       Uiso       1.00
      C323          C  0.4626702  0.7690736  0.8726070    0.00000       Uiso       1.00
      C324          C  0.4662026  0.7919864  0.8822985    0.00000       Uiso       1.00
      C325          C  0.4626703  0.7690736  0.9049815    0.00000       Uiso       1.00
      C326          C  0.4660608  0.7919124  0.9147637    0.00000       Uiso       1.00
      C327          C  0.4680275  0.8039680  0.9036177    0.00000       Uiso       1.00
      H154          H  0.4018903  0.0110867  0.9380829    0.00000       Uiso       1.00
      C328          C  0.4999630  0.9711542  0.9711897    0.00000       Uiso       1.00
      H155          H  0.4613336  0.7600008  0.9144402    0.00000       Uiso       1.00
      H156          H  0.4613336  0.7600007  0.8554121    0.00000       Uiso       1.00
      C329          C  0.6671842  0.0024894  0.9376299    0.00000       Uiso       1.00
       O73          O  0.6473042  0.9994087  0.9464979    0.00000       Uiso       1.00
       O74          O  0.6786156  0.0037538  0.9480999    0.00000       Uiso       1.00
      H157          H  0.6688120  0.0019212  0.9621233    0.00000       Uiso       1.00
      C330          C  0.4686298  0.8039316  0.8688584    0.00000       Uiso       1.00
       O75          O  0.4717097  0.8238116  0.8767900    0.00000       Uiso       1.00
       O76          O  0.4673683  0.7925005  0.8482204    0.00000       Uiso       1.00
      H158          H  0.4692027  0.8023040  0.8421667    0.00000       Uiso       1.00
      C331          C  0.3976344  0.0047104  0.1384089    0.00000       Uiso       1.00
       O77          O  0.4055645  0.9958403  0.1185289    0.00000       Uiso       1.00
       O78          O  0.3769975  0.9942418  0.1498420    0.00000       Uiso       1.00
      H159          H  0.3709431  0.9802184  0.1400395    0.00000       Uiso       1.00
      C332          C  0.4664027  0.0734890  0.9398589    0.00000       Uiso       1.00
       O79          O  0.4752739  0.0655632  0.9429424    0.00000       Uiso       1.00
       O80          O  0.4768674  0.0941256  0.9385943    0.00000       Uiso       1.00
      H160          H  0.4908900  0.1001836  0.9404303    0.00000       Uiso       1.00
      C333          C  0.6424008  0.9990501  0.9137459    0.00000       Uiso       1.00
      C334          C  0.6321489  0.0074352  0.9368015    0.00000       Uiso       1.00
      C335          C  0.6091505  0.0035800  0.9463398    0.00000       Uiso       1.00
      C336          C  0.6287287  0.9867071  0.9005179    0.00000       Uiso       1.00
      C337          C  0.6057630  0.9829157  0.9098347    0.00000       Uiso       1.00
      C338          C  0.5959111  0.9913313  0.9328212    0.00000       Uiso       1.00
      H161          H  0.6358393  0.9796508  0.8829036    0.00000       Uiso       1.00
      H162          H  0.6420864  0.0172564  0.9474097    0.00000       Uiso       1.00
      C339          C  0.4428655  0.0285974  0.1136261    0.00000       Uiso       1.00
      C340          C  0.4574150  0.0418259  0.0999539    0.00000       Uiso       1.00
      C341          C  0.4672737  0.0325103  0.0769885    0.00000       Uiso       1.00
      C342          C  0.4384561  0.0055436  0.1033752    0.00000       Uiso       1.00
      C343          C  0.4480622  0.9960070  0.0803782    0.00000       Uiso       1.00
      C344          C  0.4625632  0.0095250  0.0671383    0.00000       Uiso       1.00
      H163          H  0.4277402  0.9949314  0.1133088    0.00000       Uiso       1.00
      H164          H  0.4608557  0.0594406  0.1070646    0.00000       Uiso       1.00
      C345          C  0.4425147  0.0282525  0.9432988    0.00000       Uiso       1.00
      C346          C  0.4292836  0.0136948  0.9556423    0.00000       Uiso       1.00
      C347          C  0.4385992  0.0038342  0.9594340    0.00000       Uiso       1.00
      C348          C  0.4655692  0.0326697  0.9349139    0.00000       Uiso       1.00
      C349          C  0.4751050  0.0230647  0.9387701    0.00000       Uiso       1.00
      C350          C  0.4615879  0.0085543  0.9510173    0.00000       Uiso       1.00
      H165          H  0.4761818  0.0433907  0.9250913    0.00000       Uiso       1.00
      H166          H  0.4116665  0.0102514  0.9626977    0.00000       Uiso       1.00
      C351          C  0.4720647  0.8287140  0.9140890    0.00000       Uiso       1.00
      C352          C  0.4636732  0.8389650  0.9096770    0.00000       Uiso       1.00
      C353          C  0.4675303  0.8619635  0.9192801    0.00000       Uiso       1.00
      C354          C  0.4844139  0.8423865  0.9286398    0.00000       Uiso       1.00
      C355          C  0.4882047  0.8653521  0.9384980    0.00000       Uiso       1.00
      C356          C  0.4797847  0.8752031  0.9337837    0.00000       Uiso       1.00
      H167          H  0.4914739  0.8352751  0.9320821    0.00000       Uiso       1.00
      H168          H  0.4538442  0.8290238  0.8989602    0.00000       Uiso       1.00
      C357          C  0.4593846  0.8720444  0.9146026    0.00000       Uiso       1.00
      C358          C  0.4635290  0.8949077  0.9239529    0.00000       Uiso       1.00
      C359          C  0.4433898  0.9731022  0.0702981    0.00000       Uiso       1.00
      C360          C  0.4527425  0.9637337  0.0474357    0.00000       Uiso       1.00
      H169          H  0.4323341  0.9623702  0.0801105    0.00000       Uiso       1.00
      H170          H  0.4498973  0.8622290  0.9035462    0.00000       Uiso       1.00
      C361          C  0.4544837  0.9051971  0.9181011    0.00000       Uiso       1.00
       O81          O  0.4579211  0.9251466  0.9260949    0.00000       Uiso       1.00
       O82          O  0.4426960  0.8922271  0.9040954    0.00000       Uiso       1.00
      H171          H  0.4383097  0.9011357  0.9022054    0.00000       Uiso       1.00
      C362          C  0.4468920  0.9385471  0.0371520    0.00000       Uiso       1.00
       O83          O  0.4548860  0.9300251  0.0172033    0.00000       Uiso       1.00
       O84          O  0.4328877  0.9257279  0.0501262    0.00000       Uiso       1.00
      H172          H  0.4309985  0.9105422  0.0412208    0.00000       Uiso       1.00
      C363          C  0.5727537  0.9873442  0.9423134    0.00000       Uiso       1.00
      C364          C  0.5628148  0.9953737  0.9653180    0.00000       Uiso       1.00
      C365          C  0.5397097  0.9908192  0.9747118    0.00000       Uiso       1.00
      C366          C  0.5595339  0.9750388  0.9288032    0.00000       Uiso       1.00
      C367          C  0.5365353  0.9708539  0.9383458    0.00000       Uiso       1.00
      C368          C  0.5259674  0.9786465  0.9614771    0.00000       Uiso       1.00
      H173          H  0.5066397  0.0146136  0.9977999    0.00000       Uiso       1.00
      H174          H  0.5212064  0.9998763  0.9460012    0.00000       Uiso       1.00
      C369          C  0.4722416  0.0000323  0.0439818    0.00000       Uiso       1.00
      C370          C  0.4866598  0.0135422  0.0307602    0.00000       Uiso       1.00
      C371          C  0.4959325  0.0039998  0.0077608    0.00000       Uiso       1.00
      C372          C  0.4672142  0.9770267  0.0340435    0.00000       Uiso       1.00
      C373          C  0.4763702  0.9676329  0.0109375    0.00000       Uiso       1.00
      C374          C  0.4911652  0.9808677  0.9971944    0.00000       Uiso       1.00
      H175          H  0.5326284  0.9963481  0.9924327    0.00000       Uiso       1.00
      H176          H  0.5101110  0.9445380  0.9778860    0.00000       Uiso       1.00
      C375          C  0.4710836  0.9988772  0.9550007    0.00000       Uiso       1.00
      C376          C  0.4575732  0.9844499  0.9673043    0.00000       Uiso       1.00
      C377          C  0.4671174  0.9751786  0.9714879    0.00000       Uiso       1.00
      C378          C  0.4940903  0.0039163  0.9469706    0.00000       Uiso       1.00
      C379          C  0.5034855  0.9947612  0.9515268    0.00000       Uiso       1.00
      C380          C  0.4902503  0.9799544  0.9636979    0.00000       Uiso       1.00
      H177          H  0.4747598  0.9384915  0.9424838    0.00000       Uiso       1.00
      H178          H  0.5265753  0.9609933  0.9277312    0.00000       Uiso       1.00
      C381          C  0.4837718  0.8983604  0.9434617    0.00000       Uiso       1.00
      C382          C  0.4757385  0.9083000  0.9384286    0.00000       Uiso       1.00
      C383          C  0.4802955  0.9314070  0.9475853    0.00000       Uiso       1.00
      C384          C  0.4960782  0.9115805  0.9578868    0.00000       Uiso       1.00
      C385          C  0.5002609  0.9345798  0.9671615    0.00000       Uiso       1.00
      C386          C  0.4924705  0.9451489  0.9623889    0.00000       Uiso       1.00
      H179          H  0.4565057  0.9644561  0.9813406    0.00000       Uiso       1.00
      H180          H  0.4712664  0.9499112  0.0038568    0.00000       Uiso       1.00
      C387          C  0.5073831  0.0183974  0.9347667    0.00000       Uiso       1.00
      C388          C  0.4980122  0.0277480  0.9306253    0.00000       Uiso       1.00
      C389          C  0.4346749  0.9798041  0.9755309    0.00000       Uiso       1.00
      C390          C  0.4253162  0.9893923  0.9716724    0.00000       Uiso       1.00
      C391          C  0.5762058  0.0075780  0.9786125    0.00000       Uiso       1.00
      C392          C  0.5990693  0.0117208  0.9692450    0.00000       Uiso       1.00
      C393          C  0.5695608  0.9668138  0.9059041    0.00000       Uiso       1.00
      C394          C  0.5923691  0.9706775  0.8965476    0.00000       Uiso       1.00
      C395          C  0.5043057  0.9015534  0.9625304    0.00000       Uiso       1.00
      C396          C  0.5004453  0.8787467  0.9529386    0.00000       Uiso       1.00
      C397          C  0.4912978  0.0364406  0.0407862    0.00000       Uiso       1.00
      C398          C  0.4817089  0.0457966  0.0635933    0.00000       Uiso       1.00
      H181          H  0.5022712  0.0471678  0.0309500    0.00000       Uiso       1.00
      H182          H  0.4239473  0.9688241  0.9851134    0.00000       Uiso       1.00
      H183          H  0.5087435  0.0388113  0.9211444    0.00000       Uiso       1.00
      H184          H  0.5995498  0.9640179  0.8788557    0.00000       Uiso       1.00
      H185          H  0.5689686  0.0139391  0.9963354    0.00000       Uiso       1.00
      H186          H  0.5138866  0.9113883  0.9735123    0.00000       Uiso       1.00
      C399          C  0.6130245  0.0251979  0.9844948    0.00000       Uiso       1.00
       O85          O  0.6041854  0.0323046  0.0045187    0.00000       Uiso       1.00
       O86          O  0.6351203  0.0292412  0.9758217    0.00000       Uiso       1.00
      H187          H  0.6413068  0.0377852  0.9874578    0.00000       Uiso       1.00
      C400          C  0.5555910  0.9531990  0.8906590    0.00000       Uiso       1.00
       O87          O  0.5644277  0.9460369  0.8706409    0.00000       Uiso       1.00
       O88          O  0.5334851  0.9490945  0.8993288    0.00000       Uiso       1.00
      H188          H  0.5272901  0.9404660  0.8876963    0.00000       Uiso       1.00
      C401          C  0.5099177  0.8685435  0.9584125    0.00000       Uiso       1.00
       O89          O  0.5206165  0.8802918  0.9710456    0.00000       Uiso       1.00
       O90          O  0.5064535  0.8465443  0.9492793    0.00000       Uiso       1.00
      H189          H  0.5133955  0.8428894  0.9543505    0.00000       Uiso       1.00
      C402          C  0.5325707  0.0242593  0.9257266    0.00000       Uiso       1.00
       O91          O  0.5441639  0.0369229  0.9150609    0.00000       Uiso       1.00
       O92          O  0.5419953  0.0154350  0.9295360    0.00000       Uiso       1.00
      H190          H  0.5576859  0.0207236  0.9228359    0.00000       Uiso       1.00
      C403          C  0.4001663  0.9839154  0.9811456    0.00000       Uiso       1.00
       O93          O  0.3885851  0.9712812  0.9918430    0.00000       Uiso       1.00
       O94          O  0.3907617  0.9930480  0.9776841    0.00000       Uiso       1.00
      H191          H  0.3750936  0.9879750  0.9846264    0.00000       Uiso       1.00
      C404          C  0.4871764  0.0709454  0.0737945    0.00000       Uiso       1.00
       O95          O  0.4998050  0.0825279  0.0620447    0.00000       Uiso       1.00
       O96          O  0.4780422  0.0803475  0.0957933    0.00000       Uiso       1.00
      H192          H  0.4831091  0.0960152  0.0994470    0.00000       Uiso       1.00
      C405          C  0.7134696  0.5873173  0.8838887    0.00000       Uiso       1.00
      C406          C  0.7020421  0.5662245  0.8726071    0.00000       Uiso       1.00
      C407          C  0.6791292  0.5565357  0.8822985    0.00000       Uiso       1.00
      C408          C  0.7020421  0.5985990  0.9049816    0.00000       Uiso       1.00
      C409          C  0.6792032  0.5889333  0.9147634    0.00000       Uiso       1.00
      C410          C  0.6671472  0.5676982  0.9036175    0.00000       Uiso       1.00
      H193          H  0.4600315  0.3289056  0.9380773    0.00000       Uiso       1.00
      H194          H  0.7111149  0.6157939  0.9144403    0.00000       Uiso       1.00
      H195          H  0.7111149  0.5567658  0.8554121    0.00000       Uiso       1.00
      C411          C  0.4126654  0.2865131  0.9322773    0.00000       Uiso       1.00
      C412          C  0.4337582  0.2979405  0.9338935    0.00000       Uiso       1.00
      C413          C  0.4435402  0.3207794  0.9372852    0.00000       Uiso       1.00
      C414          C  0.4013837  0.2979405  0.9338935    0.00000       Uiso       1.00
      C415          C  0.4110752  0.3208535  0.9374264    0.00000       Uiso       1.00
      C416          C  0.4323938  0.3328345  0.9392525    0.00000       Uiso       1.00
      H196          H  0.4668522  0.5399510  0.8731165    0.00000       Uiso       1.00
      H197          H  0.3841888  0.2888677  0.9325569    0.00000       Uiso       1.00
      H198          H  0.4432168  0.2888677  0.9325569    0.00000       Uiso       1.00
      C417          C  0.4126656  0.5389287  0.1846923    0.00000       Uiso       1.00
      C418          C  0.4013839  0.5373124  0.1732649    0.00000       Uiso       1.00
      C419          C  0.4110479  0.5339181  0.1504257    0.00000       Uiso       1.00
      C420          C  0.4337584  0.5373124  0.1732649    0.00000       Uiso       1.00
      C421          C  0.4434456  0.5337760  0.1503516    0.00000       Uiso       1.00
      C422          C  0.4322810  0.5319479  0.1383695    0.00000       Uiso       1.00
      H199          H  0.6710768  0.5980895  0.9312549    0.00000       Uiso       1.00
      H200          H  0.4432171  0.5386491  0.1823378    0.00000       Uiso       1.00
      H201          H  0.3841890  0.5386491  0.1823378    0.00000       Uiso       1.00
      C423          C  0.4610539  0.5873173  0.8838887    0.00000       Uiso       1.00
      C424          C  0.4626702  0.5985990  0.9049816    0.00000       Uiso       1.00
      C425          C  0.4662025  0.5889074  0.9146705    0.00000       Uiso       1.00
      C426          C  0.4626702  0.5662245  0.8726071    0.00000       Uiso       1.00
      C427          C  0.4660608  0.5564423  0.8822731    0.00000       Uiso       1.00
      C428          C  0.4680274  0.5675883  0.9035079    0.00000       Uiso       1.00
      H202          H  0.4018903  0.5331229  0.1422977    0.00000       Uiso       1.00
      C429          C  0.4999629  0.5000165  0.9711869    0.00000       Uiso       1.00
      H203          H  0.4613335  0.5567658  0.8554121    0.00000       Uiso       1.00
      H204          H  0.4613335  0.6157939  0.9144403    0.00000       Uiso       1.00
      C430          C  0.6671842  0.5335762  0.8688600    0.00000       Uiso       1.00
       O97          O  0.6473042  0.5247082  0.8767920    0.00000       Uiso       1.00
       O98          O  0.6786155  0.5231062  0.8482231    0.00000       Uiso       1.00
      H205          H  0.6688120  0.5090827  0.8421705    0.00000       Uiso       1.00
      C431          C  0.4686297  0.6023476  0.9376287    0.00000       Uiso       1.00
       O99          O  0.4717096  0.5944160  0.9464971    0.00000       Uiso       1.00
      O100          O  0.4673683  0.6229855  0.9480970    0.00000       Uiso       1.00
      H206          H  0.4692027  0.6290392  0.9621198    0.00000       Uiso       1.00
      C432          C  0.3976341  0.3327967  0.9398518    0.00000       Uiso       1.00
      O101          O  0.4055644  0.3526767  0.9429320    0.00000       Uiso       1.00
      O102          O  0.3769973  0.3213636  0.9385875    0.00000       Uiso       1.00
      H207          H  0.3709430  0.3311661  0.9404209    0.00000       Uiso       1.00
      C433          C  0.4664027  0.5313470  0.1384117    0.00000       Uiso       1.00
      O103          O  0.4752739  0.5282634  0.1185312    0.00000       Uiso       1.00
      O104          O  0.4768673  0.5326115  0.1498483    0.00000       Uiso       1.00
      H208          H  0.4908901  0.5307755  0.1400475    0.00000       Uiso       1.00
      C434          C  0.6424007  0.5574601  0.9140887    0.00000       Uiso       1.00
      C435          C  0.6321488  0.5344046  0.9096695    0.00000       Uiso       1.00
      C436          C  0.6091504  0.5248662  0.9192745    0.00000       Uiso       1.00
      C437          C  0.6287286  0.5706881  0.9286458    0.00000       Uiso       1.00
      C438          C  0.6057629  0.5613713  0.9385034    0.00000       Uiso       1.00
      C439          C  0.5959111  0.5383849  0.9337844    0.00000       Uiso       1.00
      H209          H  0.6358393  0.5883024  0.9320931    0.00000       Uiso       1.00
      H210          H  0.6420863  0.5237964  0.8989451    0.00000       Uiso       1.00
      C440          C  0.4428653  0.3575795  0.9432904    0.00000       Uiso       1.00
      C441          C  0.4574148  0.3712517  0.9556416    0.00000       Uiso       1.00
      C442          C  0.4672735  0.3942170  0.9594327    0.00000       Uiso       1.00
      C443          C  0.4384560  0.3678303  0.9348968    0.00000       Uiso       1.00
      C444          C  0.4480620  0.3908273  0.9387518    0.00000       Uiso       1.00
      C445          C  0.4625629  0.4040672  0.9510081    0.00000       Uiso       1.00
      H211          H  0.4277400  0.3578967  0.9250676    0.00000       Uiso       1.00
      H212          H  0.4608555  0.3641409  0.9627049    0.00000       Uiso       1.00
      C446          C  0.4425148  0.5279071  0.1136232    0.00000       Uiso       1.00
      C447          C  0.4292836  0.5155635  0.0999532    0.00000       Uiso       1.00
      C448          C  0.4385991  0.5117718  0.0769853    0.00000       Uiso       1.00
      C449          C  0.4655693  0.5362919  0.1033709    0.00000       Uiso       1.00
      C450          C  0.4751050  0.5324358  0.0803739    0.00000       Uiso       1.00
      C451          C  0.4615879  0.5201886  0.0671334    0.00000       Uiso       1.00
      H213          H  0.4761818  0.5461145  0.1133019    0.00000       Uiso       1.00
      H214          H  0.4116665  0.5085082  0.1070716    0.00000       Uiso       1.00
      C452          C  0.4720646  0.5571170  0.9137456    0.00000       Uiso       1.00
      C453          C  0.4636731  0.5615290  0.9368002    0.00000       Uiso       1.00
      C454          C  0.4675303  0.5519259  0.9463384    0.00000       Uiso       1.00
      C455          C  0.4844139  0.5425663  0.9005181    0.00000       Uiso       1.00
      C456          C  0.4882046  0.5327081  0.9098347    0.00000       Uiso       1.00
      C457          C  0.4797846  0.5374224  0.9328202    0.00000       Uiso       1.00
      H215          H  0.4914739  0.5391240  0.8829044    0.00000       Uiso       1.00
      H216          H  0.4538442  0.5722459  0.9474047    0.00000       Uiso       1.00
      C458          C  0.4593845  0.5566034  0.9692426    0.00000       Uiso       1.00
      C459          C  0.4635289  0.5472531  0.9786112    0.00000       Uiso       1.00
      C460          C  0.4433897  0.4009074  0.9305993    0.00000       Uiso       1.00
      C461          C  0.4527423  0.4237697  0.9347405    0.00000       Uiso       1.00
      H217          H  0.4323339  0.3910950  0.9211107    0.00000       Uiso       1.00
      H218          H  0.4498973  0.5676599  0.9799708    0.00000       Uiso       1.00
      C462          C  0.4544837  0.5531046  0.0037970    0.00000       Uiso       1.00
      O105          O  0.4579211  0.5451109  0.0123153    0.00000       Uiso       1.00
      O106          O  0.4426961  0.5671104  0.0166204    0.00000       Uiso       1.00
      H219          H  0.4383098  0.5690004  0.0318054    0.00000       Uiso       1.00
      C463          C  0.4468918  0.4340535  0.9256881    0.00000       Uiso       1.00
      O107          O  0.4548859  0.4540021  0.9291208    0.00000       Uiso       1.00
      O108          O  0.4328875  0.4210792  0.9138991    0.00000       Uiso       1.00
      H220          H  0.4309983  0.4299847  0.9095080    0.00000       Uiso       1.00
      C464          C  0.5727536  0.5288927  0.9434626    0.00000       Uiso       1.00
      C465          C  0.5628147  0.5058881  0.9384263    0.00000       Uiso       1.00
      C466          C  0.5397096  0.4964943  0.9475831    0.00000       Uiso       1.00
      C467          C  0.5595338  0.5424027  0.9578871    0.00000       Uiso       1.00
      C468          C  0.5365352  0.5328602  0.9671583    0.00000       Uiso       1.00
      C469          C  0.5259673  0.5097290  0.9623874    0.00000       Uiso       1.00
      H221          H  0.5066396  0.4734062  0.9813589    0.00000       Uiso       1.00
      H222          H  0.5212064  0.5252047  0.0038535    0.00000       Uiso       1.00
      C470          C  0.4722414  0.4272237  0.9549935    0.00000       Uiso       1.00
      C471          C  0.4866595  0.4404452  0.9673067    0.00000       Uiso       1.00
      C472          C  0.4959323  0.4634446  0.9714910    0.00000       Uiso       1.00
      C473          C  0.4672140  0.4371620  0.9469541    0.00000       Uiso       1.00
      C474          C  0.4763699  0.4602679  0.9515104    0.00000       Uiso       1.00
      C475          C  0.4911651  0.4740117  0.9636936    0.00000       Uiso       1.00
      H223          H  0.5326282  0.4787735  0.9424726    0.00000       Uiso       1.00
      H224          H  0.5101109  0.4933201  0.9277265    0.00000       Uiso       1.00
      C476          C  0.4710836  0.5162052  0.0439777    0.00000       Uiso       1.00
      C477          C  0.4575732  0.5039016  0.0307573    0.00000       Uiso       1.00
      C478          C  0.4671174  0.4997181  0.0077581    0.00000       Uiso       1.00
      C479          C  0.4940902  0.5242352  0.0340397    0.00000       Uiso       1.00
      C480          C  0.5034855  0.5196791  0.0109337    0.00000       Uiso       1.00
      C481          C  0.4902502  0.5075082  0.9971917    0.00000       Uiso       1.00
      H225          H  0.4747598  0.5287222  0.9924332    0.00000       Uiso       1.00
      H226          H  0.5265752  0.5434749  0.9778723    0.00000       Uiso       1.00
      C482          C  0.4837717  0.5277444  0.9423122    0.00000       Uiso       1.00
      C483          C  0.4757384  0.5327774  0.9653183    0.00000       Uiso       1.00
      C484          C  0.4802954  0.5236208  0.9747117    0.00000       Uiso       1.00
      C485          C  0.4960781  0.5133194  0.9288010    0.00000       Uiso       1.00
      C486          C  0.5002609  0.5040446  0.9383427    0.00000       Uiso       1.00
      C487          C  0.4924704  0.5088171  0.9614750    0.00000       Uiso       1.00
      H227          H  0.4565057  0.4898655  0.9977953    0.00000       Uiso       1.00
      H228          H  0.4712663  0.4673486  0.9459730    0.00000       Uiso       1.00
      C488          C  0.5073830  0.5364391  0.0474318    0.00000       Uiso       1.00
      C489          C  0.4980123  0.5405806  0.0702947    0.00000       Uiso       1.00
      C490          C  0.4346749  0.4956750  0.0407831    0.00000       Uiso       1.00
      C491          C  0.4253162  0.4995335  0.0635886    0.00000       Uiso       1.00
      C492          C  0.5762057  0.4925936  0.9239446    0.00000       Uiso       1.00
      C493          C  0.5990692  0.5019610  0.9145913    0.00000       Uiso       1.00
      C494          C  0.5695607  0.5653019  0.9625343    0.00000       Uiso       1.00
      C495          C  0.5923690  0.5746585  0.9529462    0.00000       Uiso       1.00
      C496          C  0.5043057  0.5086756  0.9059026    0.00000       Uiso       1.00
      C497          C  0.5004452  0.5182675  0.8965481    0.00000       Uiso       1.00
      C498          C  0.4912976  0.4304192  0.9755411    0.00000       Uiso       1.00
      C499          C  0.4817087  0.4076121  0.9716789    0.00000       Uiso       1.00
      H229          H  0.5022711  0.4402555  0.9851311    0.00000       Uiso       1.00
      H230          H  0.4239473  0.4860925  0.0309482    0.00000       Uiso       1.00
      H231          H  0.5087435  0.5500614  0.0801077    0.00000       Uiso       1.00
      H232          H  0.5995497  0.5923502  0.9567978    0.00000       Uiso       1.00
      H233          H  0.5689685  0.4748707  0.9198200    0.00000       Uiso       1.00
      H234          H  0.5138865  0.4976938  0.8951748    0.00000       Uiso       1.00
      C500          C  0.6130244  0.4867113  0.8988635    0.00000       Uiso       1.00
      O109          O  0.6041852  0.4666867  0.8947849    0.00000       Uiso       1.00
      O110          O  0.6351202  0.4953843  0.8894840    0.00000       Uiso       1.00
      H235          H  0.6413067  0.4837483  0.8802055    0.00000       Uiso       1.00
      C501          C  0.5555910  0.5805470  0.9781344    0.00000       Uiso       1.00
      O111          O  0.5644276  0.6005651  0.9821538    0.00000       Uiso       1.00
      O112          O  0.5334849  0.5718772  0.9874662    0.00000       Uiso       1.00
      H236          H  0.5272900  0.5835097  0.9966651    0.00000       Uiso       1.00
      C502          C  0.5099177  0.5127935  0.8713986    0.00000       Uiso       1.00
      O113          O  0.5206164  0.5001605  0.8598151    0.00000       Uiso       1.00
      O114          O  0.5064534  0.5219268  0.8619969    0.00000       Uiso       1.00
      H237          H  0.5133954  0.5168555  0.8463286    0.00000       Uiso       1.00
      C503          C  0.5325707  0.5454792  0.0371463    0.00000       Uiso       1.00
      O115          O  0.5441639  0.5561448  0.0488823    0.00000       Uiso       1.00
      O116          O  0.5419953  0.5416699  0.0150879    0.00000       Uiso       1.00
      H238          H  0.5576860  0.5483699  0.0113858    0.00000       Uiso       1.00
      C504          C  0.4001662  0.4900603  0.0737885    0.00000       Uiso       1.00
      O117          O  0.3885851  0.4793629  0.0620379    0.00000       Uiso       1.00
      O118          O  0.3907616  0.4935218  0.0957871    0.00000       Uiso       1.00
      H239          H  0.3750936  0.4865796  0.0994400    0.00000       Uiso       1.00
      C505          C  0.4871762  0.3974110  0.9811590    0.00000       Uiso       1.00
      O119          O  0.4998048  0.4091607  0.9918627    0.00000       Uiso       1.00
      O120          O  0.4780419  0.3754122  0.9776967    0.00000       Uiso       1.00
      H240          H  0.4831089  0.3717586  0.9846438    0.00000       Uiso       1.00
      C506          C  0.8837983  0.0100623  0.8838887    0.00000       Uiso       1.00
      C507          C  0.9048911  0.0084460  0.8726069    0.00000       Uiso       1.00
      C508          C  0.9145800  0.0049134  0.8822984    0.00000       Uiso       1.00
      C509          C  0.8725166  0.0084460  0.9049815    0.00000       Uiso       1.00
      C510          C  0.8821824  0.0050546  0.9147633    0.00000       Uiso       1.00
      C511          C  0.9034174  0.0030878  0.9036174    0.00000       Uiso       1.00
      H241          H  0.1422107  0.0692245  0.9380772    0.00000       Uiso       1.00
      H242          H  0.8553218  0.0097827  0.9144402    0.00000       Uiso       1.00
      H243          H  0.9143498  0.0097826  0.8554121    0.00000       Uiso       1.00
      C512          C  0.1846031  0.0584508  0.9322771    0.00000       Uiso       1.00
      C513          C  0.1731757  0.0697324  0.9338934    0.00000       Uiso       1.00
      C514          C  0.1503369  0.0600673  0.9372851    0.00000       Uiso       1.00
      C515          C  0.1731757  0.0373580  0.9338934    0.00000       Uiso       1.00
      C516          C  0.1502628  0.0276694  0.9374263    0.00000       Uiso       1.00
      C517          C  0.1382817  0.0388331  0.9392524    0.00000       Uiso       1.00
      H244          H  0.9311647  0.8000385  0.8731164    0.00000       Uiso       1.00
      H245          H  0.1822486  0.0278993  0.9325568    0.00000       Uiso       1.00
      H246          H  0.1822485  0.0869274  0.9325568    0.00000       Uiso       1.00
      C518          C  0.9321868  0.0584505  0.1846923    0.00000       Uiso       1.00
      C519          C  0.9338031  0.0373577  0.1732648    0.00000       Uiso       1.00
      C520          C  0.9371976  0.0275768  0.1504256    0.00000       Uiso       1.00
      C521          C  0.9338032  0.0697322  0.1732648    0.00000       Uiso       1.00
      C522          C  0.9373396  0.0600425  0.1503515    0.00000       Uiso       1.00
      C523          C  0.9391677  0.0387240  0.1383695    0.00000       Uiso       1.00
      H247          H  0.8730261  0.0042635  0.9312549    0.00000       Uiso       1.00
      H248          H  0.9324666  0.0869271  0.1823377    0.00000       Uiso       1.00
      H249          H  0.9324665  0.0278990  0.1823377    0.00000       Uiso       1.00
      C524          C  0.8837983  0.7576462  0.8838887    0.00000       Uiso       1.00
      C525          C  0.8725167  0.7690736  0.9049816    0.00000       Uiso       1.00
      C526          C  0.8822081  0.7919864  0.9146705    0.00000       Uiso       1.00
      C527          C  0.9048911  0.7690735  0.8726071    0.00000       Uiso       1.00
      C528          C  0.9146733  0.7919124  0.8822731    0.00000       Uiso       1.00
      C529          C  0.9035274  0.8039680  0.9035079    0.00000       Uiso       1.00
      H250          H  0.9379927  0.0110865  0.1422977    0.00000       Uiso       1.00
      C530          C  0.9710993  0.9711541  0.9711868    0.00000       Uiso       1.00
      H251          H  0.9143499  0.7600007  0.8554121    0.00000       Uiso       1.00
      H252          H  0.8553218  0.7600007  0.9144403    0.00000       Uiso       1.00
      C531          C  0.9375395  0.0024894  0.8688599    0.00000       Uiso       1.00
      O121          O  0.9464075  0.9994087  0.8767918    0.00000       Uiso       1.00
      O122          O  0.9480094  0.0037538  0.8482231    0.00000       Uiso       1.00
      H253          H  0.9620330  0.0019211  0.8421704    0.00000       Uiso       1.00
      C532          C  0.8687680  0.8039316  0.9376287    0.00000       Uiso       1.00
      O123          O  0.8766997  0.8238115  0.9464971    0.00000       Uiso       1.00
      O124          O  0.8481301  0.7925004  0.9480970    0.00000       Uiso       1.00
      H254          H  0.8420764  0.8023040  0.9621198    0.00000       Uiso       1.00
      C533          C  0.1383196  0.0047105  0.9398516    0.00000       Uiso       1.00
      O125          O  0.1184396  0.9958404  0.9429320    0.00000       Uiso       1.00
      O126          O  0.1497526  0.9942419  0.9385874    0.00000       Uiso       1.00
      H255          H  0.1399502  0.9802185  0.9404209    0.00000       Uiso       1.00
      C534          C  0.9397686  0.0734888  0.1384116    0.00000       Uiso       1.00
      O127          O  0.9428522  0.0655630  0.1185311    0.00000       Uiso       1.00
      O128          O  0.9385040  0.0941254  0.1498482    0.00000       Uiso       1.00
      H256          H  0.9403401  0.1001834  0.1400474    0.00000       Uiso       1.00
      C535          C  0.9136555  0.9990501  0.9140887    0.00000       Uiso       1.00
      C536          C  0.9367111  0.0074351  0.9096695    0.00000       Uiso       1.00
      C537          C  0.9462495  0.0035800  0.9192744    0.00000       Uiso       1.00
      C538          C  0.9004276  0.9867070  0.9286458    0.00000       Uiso       1.00
      C539          C  0.9097443  0.9829157  0.9385033    0.00000       Uiso       1.00
      C540          C  0.9327309  0.9913313  0.9337843    0.00000       Uiso       1.00
      H257          H  0.8828133  0.9796507  0.9320931    0.00000       Uiso       1.00
      H258          H  0.9473193  0.0172564  0.8989450    0.00000       Uiso       1.00
      C541          C  0.1135367  0.0285975  0.9432903    0.00000       Uiso       1.00
      C542          C  0.0998645  0.0418260  0.9556416    0.00000       Uiso       1.00
      C543          C  0.0768993  0.0325105  0.9594326    0.00000       Uiso       1.00
      C544          C  0.1032859  0.0055438  0.9348968    0.00000       Uiso       1.00
      C545          C  0.0802889  0.9960071  0.9387517    0.00000       Uiso       1.00
      C546          C  0.0670491  0.0095252  0.9510080    0.00000       Uiso       1.00
      H259          H  0.1132195  0.9949315  0.9250675    0.00000       Uiso       1.00
      H260          H  0.1069753  0.0594407  0.9627048    0.00000       Uiso       1.00
      C547          C  0.9432085  0.0282523  0.1136232    0.00000       Uiso       1.00
      C548          C  0.9555520  0.0136946  0.0999531    0.00000       Uiso       1.00
      C549          C  0.9593437  0.0038340  0.0769853    0.00000       Uiso       1.00
      C550          C  0.9348237  0.0326696  0.1033708    0.00000       Uiso       1.00
      C551          C  0.9386798  0.0230645  0.0803738    0.00000       Uiso       1.00
      C552          C  0.9509270  0.0085541  0.0671333    0.00000       Uiso       1.00
      H261          H  0.9250010  0.0433905  0.1133019    0.00000       Uiso       1.00
      H262          H  0.9626074  0.0102512  0.1070715    0.00000       Uiso       1.00
      C553          C  0.9139986  0.8287140  0.9137456    0.00000       Uiso       1.00
      C554          C  0.9095866  0.8389650  0.9368001    0.00000       Uiso       1.00
      C555          C  0.9191898  0.8619635  0.9463384    0.00000       Uiso       1.00
      C556          C  0.9285493  0.8423865  0.9005181    0.00000       Uiso       1.00
      C557          C  0.9384075  0.8653520  0.9098347    0.00000       Uiso       1.00
      C558          C  0.9336932  0.8752031  0.9328201    0.00000       Uiso       1.00
      H263          H  0.9319917  0.8352751  0.8829044    0.00000       Uiso       1.00
      H264          H  0.8988697  0.8290238  0.9474047    0.00000       Uiso       1.00
      C559          C  0.9145122  0.8720444  0.9692426    0.00000       Uiso       1.00
      C560          C  0.9238626  0.8949077  0.9786112    0.00000       Uiso       1.00
      C561          C  0.0702089  0.9731023  0.9305993    0.00000       Uiso       1.00
      C562          C  0.0473465  0.9637339  0.9347405    0.00000       Uiso       1.00
      H265          H  0.0800212  0.9623703  0.9211106    0.00000       Uiso       1.00
      H266          H  0.9034559  0.8622290  0.9799708    0.00000       Uiso       1.00
      C563          C  0.9180109  0.9051970  0.0037970    0.00000       Uiso       1.00
      O129          O  0.9260046  0.9251464  0.0123153    0.00000       Uiso       1.00
      O130          O  0.9040051  0.8922269  0.0166203    0.00000       Uiso       1.00
      H267          H  0.9021152  0.9011356  0.0318054    0.00000       Uiso       1.00
      C564          C  0.0370627  0.9385473  0.9256881    0.00000       Uiso       1.00
      O131          O  0.0171141  0.9300253  0.9291207    0.00000       Uiso       1.00
      O132          O  0.0500370  0.9257280  0.9138990    0.00000       Uiso       1.00
      H268          H  0.0411315  0.9105424  0.9095080    0.00000       Uiso       1.00
      C565          C  0.9422230  0.9873442  0.9434625    0.00000       Uiso       1.00
      C566          C  0.9652275  0.9953736  0.9384263    0.00000       Uiso       1.00
      C567          C  0.9746214  0.9908192  0.9475831    0.00000       Uiso       1.00
      C568          C  0.9287129  0.9750388  0.9578870    0.00000       Uiso       1.00
      C569          C  0.9382554  0.9708539  0.9671582    0.00000       Uiso       1.00
      C570          C  0.9613866  0.9786465  0.9623874    0.00000       Uiso       1.00
      H269          H  0.9977095  0.0146136  0.9813588    0.00000       Uiso       1.00
      H270          H  0.9459109  0.9998761  0.0038534    0.00000       Uiso       1.00
      C571          C  0.0438926  0.0000325  0.9549934    0.00000       Uiso       1.00
      C572          C  0.0306711  0.0135423  0.9673066    0.00000       Uiso       1.00
      C573          C  0.0076716  0.0039999  0.9714909    0.00000       Uiso       1.00
      C574          C  0.0339543  0.9770269  0.9469541    0.00000       Uiso       1.00
      C575          C  0.0108484  0.9676331  0.9515103    0.00000       Uiso       1.00
      C576          C  0.9971039  0.9808676  0.9636936    0.00000       Uiso       1.00
      H271          H  0.9923422  0.9963481  0.9424725    0.00000       Uiso       1.00
      H272          H  0.9777955  0.9445379  0.9277264    0.00000       Uiso       1.00
      C577          C  0.9549103  0.9988770  0.0439777    0.00000       Uiso       1.00
      C578          C  0.9672140  0.9844496  0.0307572    0.00000       Uiso       1.00
      C579          C  0.9713976  0.9751784  0.0077581    0.00000       Uiso       1.00
      C580          C  0.9468803  0.0039161  0.0340396    0.00000       Uiso       1.00
      C581          C  0.9514365  0.9947610  0.0109337    0.00000       Uiso       1.00
      C582          C  0.9636075  0.9799544  0.9971916    0.00000       Uiso       1.00
      H273          H  0.9423934  0.9384914  0.9924331    0.00000       Uiso       1.00
      H274          H  0.9276408  0.9609933  0.9778722    0.00000       Uiso       1.00
      C583          C  0.9433714  0.8983604  0.9423122    0.00000       Uiso       1.00
      C584          C  0.9383382  0.9083000  0.9653183    0.00000       Uiso       1.00
      C585          C  0.9474949  0.9314071  0.9747117    0.00000       Uiso       1.00
      C586          C  0.9577963  0.9115804  0.9288009    0.00000       Uiso       1.00
      C587          C  0.9670711  0.9345797  0.9383426    0.00000       Uiso       1.00
      C588          C  0.9622985  0.9451489  0.9614750    0.00000       Uiso       1.00
      H275          H  0.9812501  0.9644560  0.9977952    0.00000       Uiso       1.00
      H276          H  0.0037676  0.9499114  0.9459730    0.00000       Uiso       1.00
      C589          C  0.9346765  0.0183972  0.0474318    0.00000       Uiso       1.00
      C590          C  0.9305349  0.0277478  0.0702946    0.00000       Uiso       1.00
      C591          C  0.9754406  0.9798039  0.0407830    0.00000       Uiso       1.00
      C592          C  0.9715821  0.9893921  0.0635885    0.00000       Uiso       1.00
      C593          C  0.9785220  0.0075780  0.9239445    0.00000       Uiso       1.00
      C594          C  0.9691546  0.0117208  0.9145912    0.00000       Uiso       1.00
      C595          C  0.9058138  0.9668137  0.9625342    0.00000       Uiso       1.00
      C596          C  0.8964572  0.9706774  0.9529461    0.00000       Uiso       1.00
      C597          C  0.9624399  0.9015533  0.9059026    0.00000       Uiso       1.00
      C598          C  0.9528481  0.8787466  0.8965481    0.00000       Uiso       1.00
      C599          C  0.0406970  0.0364407  0.9755411    0.00000       Uiso       1.00
      C600          C  0.0635041  0.0457967  0.9716789    0.00000       Uiso       1.00
      H277          H  0.0308608  0.0471680  0.9851311    0.00000       Uiso       1.00
      H278          H  0.9850231  0.9688239  0.0309482    0.00000       Uiso       1.00
      H279          H  0.9210541  0.0388111  0.0801076    0.00000       Uiso       1.00
      H280          H  0.8787654  0.9640179  0.9567977    0.00000       Uiso       1.00
      H281          H  0.9962449  0.0139390  0.9198199    0.00000       Uiso       1.00
      H282          H  0.9734218  0.9113882  0.8951747    0.00000       Uiso       1.00
      C601          C  0.9844044  0.0251979  0.8988634    0.00000       Uiso       1.00
      O133          O  0.0044295  0.0323048  0.8947849    0.00000       Uiso       1.00
      O134          O  0.9757313  0.0292412  0.8894839    0.00000       Uiso       1.00
      H283          H  0.9873673  0.0377852  0.8802053    0.00000       Uiso       1.00
      C602          C  0.8905687  0.9531990  0.9781343    0.00000       Uiso       1.00
      O135          O  0.8705505  0.9460369  0.9821537    0.00000       Uiso       1.00
      O136          O  0.8992384  0.9490945  0.9874661    0.00000       Uiso       1.00
      H284          H  0.8876060  0.9404660  0.9966650    0.00000       Uiso       1.00
      C603          C  0.9583220  0.8685434  0.8713986    0.00000       Uiso       1.00
      O137          O  0.9709551  0.8802918  0.8598151    0.00000       Uiso       1.00
      O138          O  0.9491889  0.8465443  0.8619968    0.00000       Uiso       1.00
      H285          H  0.9542601  0.8428893  0.8463286    0.00000       Uiso       1.00
      C604          C  0.9256364  0.0242591  0.0371462    0.00000       Uiso       1.00
      O139          O  0.9149707  0.0369227  0.0488822    0.00000       Uiso       1.00
      O140          O  0.9294457  0.0154348  0.0150879    0.00000       Uiso       1.00
      H286          H  0.9227458  0.0207234  0.0113857    0.00000       Uiso       1.00
      C605          C  0.9810553  0.9839153  0.0737884    0.00000       Uiso       1.00
      O141          O  0.9917526  0.9712809  0.0620379    0.00000       Uiso       1.00
      O142          O  0.9775938  0.9930478  0.0957871    0.00000       Uiso       1.00
      H287          H  0.9845360  0.9879748  0.0994400    0.00000       Uiso       1.00
      C606          C  0.0737052  0.0709455  0.9811590    0.00000       Uiso       1.00
      O143          O  0.0619555  0.0825280  0.9918627    0.00000       Uiso       1.00
      O144          O  0.0957041  0.0803477  0.9776966    0.00000       Uiso       1.00
      H288          H  0.0993577  0.0960154  0.9846437    0.00000       Uiso       1.00
        B1          B  0.8725086  0.5986069  0.4586504    0.00000       Uiso       1.00
        B2          B  0.7385423  0.5986069  0.4586504    0.00000       Uiso       1.00
        B3          B  0.8725086  0.7325733  0.4586504    0.00000       Uiso       1.00
      C607          C  0.8283047  0.6235071  0.4571609    0.00000       Uiso       1.00
      C608          C  0.8476166  0.6052313  0.4575468    0.00000       Uiso       1.00
      H289          H  0.8151557  0.5893598  0.4572338    0.00000       Uiso       1.00
      O145          O  0.8499938  0.5882723  0.4582079    0.00000       Uiso       1.00
      C609          C  0.8288525  0.6046808  0.4573147    0.00000       Uiso       1.00
      C610          C  0.8091358  0.6428109  0.4571609    0.00000       Uiso       1.00
      C611          C  0.7711623  0.6234990  0.4575468    0.00000       Uiso       1.00
      H290          H  0.7880646  0.6559598  0.4572338    0.00000       Uiso       1.00
      O146          O  0.7511650  0.6211218  0.4582079    0.00000       Uiso       1.00
      C612          C  0.7896081  0.6422631  0.4573147    0.00000       Uiso       1.00
      C613          C  0.8476085  0.6619797  0.4571609    0.00000       Uiso       1.00
      C614          C  0.8658842  0.6999533  0.4575468    0.00000       Uiso       1.00
      H291          H  0.8817558  0.6830509  0.4572338    0.00000       Uiso       1.00
      O147          O  0.8828432  0.7199505  0.4582079    0.00000       Uiso       1.00
      C615          C  0.8664347  0.6815075  0.4573147    0.00000       Uiso       1.00
      C616          C  0.8091358  0.6235071  0.4571609    0.00000       Uiso       1.00
      C617          C  0.7711623  0.6052313  0.4575468    0.00000       Uiso       1.00
      O148          O  0.7511650  0.5882724  0.4582079    0.00000       Uiso       1.00
      H292          H  0.7880646  0.5893598  0.4572338    0.00000       Uiso       1.00
      C618          C  0.7896080  0.6046808  0.4573147    0.00000       Uiso       1.00
      C619          C  0.8476084  0.6428108  0.4571609    0.00000       Uiso       1.00
      C620          C  0.8658842  0.6234990  0.4575468    0.00000       Uiso       1.00
      H293          H  0.8817558  0.6559597  0.4572338    0.00000       Uiso       1.00
      O149          O  0.8828431  0.6211217  0.4582079    0.00000       Uiso       1.00
      C621          C  0.8664347  0.6422631  0.4573147    0.00000       Uiso       1.00
      C622          C  0.8283047  0.6619797  0.4571609    0.00000       Uiso       1.00
      C623          C  0.8476166  0.6999533  0.4575468    0.00000       Uiso       1.00
      H294          H  0.8151557  0.6830509  0.4572338    0.00000       Uiso       1.00
      O150          O  0.8499938  0.7199505  0.4582078    0.00000       Uiso       1.00
      C624          C  0.8288524  0.6815075  0.4573147    0.00000       Uiso       1.00
        B4          B  0.4585607  0.7325734  0.8725989    0.00000       Uiso       1.00
        B5          B  0.4585606  0.5986070  0.7386324    0.00000       Uiso       1.00
        B6          B  0.4585606  0.5986071  0.8725990    0.00000       Uiso       1.00
      C625          C  0.4570712  0.6619799  0.8283950    0.00000       Uiso       1.00
      C626          C  0.4574571  0.6999534  0.8477069    0.00000       Uiso       1.00
      H295          H  0.4571440  0.6830510  0.8152460    0.00000       Uiso       1.00
      O151          O  0.4581182  0.7199507  0.8500841    0.00000       Uiso       1.00
      C627          C  0.4572250  0.6815076  0.8289427    0.00000       Uiso       1.00
      C628          C  0.4570712  0.6235072  0.8092260    0.00000       Uiso       1.00
      C629          C  0.4574570  0.6052314  0.7712525    0.00000       Uiso       1.00
      H296          H  0.4571441  0.5893599  0.7881548    0.00000       Uiso       1.00
      O152          O  0.4581181  0.5882725  0.7512552    0.00000       Uiso       1.00
      C630          C  0.4572250  0.6046810  0.7896983    0.00000       Uiso       1.00
      C631          C  0.4570712  0.6428109  0.8476987    0.00000       Uiso       1.00
      C632          C  0.4574571  0.6234991  0.8659745    0.00000       Uiso       1.00
      H297          H  0.4571440  0.6559599  0.8818461    0.00000       Uiso       1.00
      O153          O  0.4581181  0.6211219  0.8829336    0.00000       Uiso       1.00
      C633          C  0.4572250  0.6422632  0.8665250    0.00000       Uiso       1.00
      C634          C  0.4570712  0.6428109  0.8092260    0.00000       Uiso       1.00
      C635          C  0.4574570  0.6234990  0.7712525    0.00000       Uiso       1.00
      O154          O  0.4581181  0.6211218  0.7512552    0.00000       Uiso       1.00
      H298          H  0.4571441  0.6559599  0.7881548    0.00000       Uiso       1.00
      C636          C  0.4572250  0.6422632  0.7896983    0.00000       Uiso       1.00
      C637          C  0.4570712  0.6619799  0.8476987    0.00000       Uiso       1.00
      C638          C  0.4574571  0.6999534  0.8659745    0.00000       Uiso       1.00
      H299          H  0.4571440  0.6830511  0.8818461    0.00000       Uiso       1.00
      O155          O  0.4581182  0.7199506  0.8829335    0.00000       Uiso       1.00
      C639          C  0.4572250  0.6815076  0.8665250    0.00000       Uiso       1.00
      C640          C  0.4570712  0.6235072  0.8283950    0.00000       Uiso       1.00
      C641          C  0.4574570  0.6052315  0.8477069    0.00000       Uiso       1.00
      H300          H  0.4571441  0.5893599  0.8152460    0.00000       Uiso       1.00
      O156          O  0.4581181  0.5882725  0.8500841    0.00000       Uiso       1.00
      C642          C  0.4572250  0.6046810  0.8289428    0.00000       Uiso       1.00
      C643          C  0.3767249  0.5429543  0.3949674    0.00000       Uiso       1.00
      C644          C  0.3579938  0.5440831  0.3959585    0.00000       Uiso       1.00
      C645          C  0.3400159  0.5462770  0.4155305    0.00000       Uiso       1.00
      C646          C  0.3209659  0.5462672  0.4159220    0.00000       Uiso       1.00
      C647          C  0.3189676  0.5428128  0.3964283    0.00000       Uiso       1.00
      C648          C  0.3371691  0.5403019  0.3768131    0.00000       Uiso       1.00
      C649          C  0.3572595  0.5424613  0.3765129    0.00000       Uiso       1.00
      O157          O  0.3797306  0.5434275  0.4122205    0.00000       Uiso       1.00
      H301          H  0.3408169  0.5480207  0.4305573    0.00000       Uiso       1.00
      H302          H  0.3078548  0.5487480  0.4315945    0.00000       Uiso       1.00
      H303          H  0.3352802  0.5352424  0.3613833    0.00000       Uiso       1.00
      C650          C  0.3948811  0.5430123  0.2424759    0.00000       Uiso       1.00
      C651          C  0.3958747  0.5441542  0.2613504    0.00000       Uiso       1.00
      C652          C  0.4154422  0.5463371  0.2619508    0.00000       Uiso       1.00
      C653          C  0.4158280  0.5463209  0.2805994    0.00000       Uiso       1.00
      C654          C  0.3963324  0.5428653  0.2986346    0.00000       Uiso       1.00
      C655          C  0.3767244  0.5403761  0.2975389    0.00000       Uiso       1.00
      C656          C  0.3764315  0.5425447  0.2799097    0.00000       Uiso       1.00
      O158          O  0.4121286  0.5434557  0.2226818    0.00000       Uiso       1.00
      H304          H  0.4304679  0.5480664  0.2478652    0.00000       Uiso       1.00
      H305          H  0.4314979  0.5487908  0.2805153    0.00000       Uiso       1.00
      H306          H  0.3612906  0.5353182  0.3097911    0.00000       Uiso       1.00
      C657          C  0.2423749  0.5429924  0.3768413    0.00000       Uiso       1.00
      C658          C  0.2612526  0.5441513  0.3581243    0.00000       Uiso       1.00
      C659          C  0.2618562  0.5463648  0.3401564    0.00000       Uiso       1.00
      C660          C  0.2805122  0.5463760  0.3211117    0.00000       Uiso       1.00
      C661          C  0.2985526  0.5429235  0.3191109    0.00000       Uiso       1.00
      C662          C  0.2974549  0.5404046  0.3373100    0.00000       Uiso       1.00
      C663          C  0.2798120  0.5425360  0.3573929    0.00000       Uiso       1.00
      O159          O  0.2225907  0.5434617  0.3798406    0.00000       Uiso       1.00
      H307          H  0.2477625  0.5480966  0.3409613    0.00000       Uiso       1.00
      H308          H  0.2804311  0.5488620  0.3080036    0.00000       Uiso       1.00
      H309          H  0.3097189  0.5353529  0.3354228    0.00000       Uiso       1.00
      C664          C  0.2414782  0.5401381  0.3941575    0.00000       Uiso       1.00
      C665          C  0.2598283  0.5396152  0.3945714    0.00000       Uiso       1.00
      C666          C  0.2589949  0.5372254  0.4125535    0.00000       Uiso       1.00
      C667          C  0.2777852  0.5375779  0.4130221    0.00000       Uiso       1.00
      C668          C  0.2982107  0.5416017  0.3960676    0.00000       Uiso       1.00
      C669          C  0.2987813  0.5444654  0.3783433    0.00000       Uiso       1.00
      C670          C  0.2796192  0.5419038  0.3764553    0.00000       Uiso       1.00
      O160          O  0.2210388  0.5385109  0.4106603    0.00000       Uiso       1.00
      H310          H  0.2436571  0.5349966  0.4262320    0.00000       Uiso       1.00
      H311          H  0.2760658  0.5348496  0.4268823    0.00000       Uiso       1.00
      H312          H  0.3144274  0.5499938  0.3665459    0.00000       Uiso       1.00
      C671          C  0.3756147  0.5401957  0.2415924    0.00000       Uiso       1.00
      C672          C  0.3563344  0.5396932  0.2599502    0.00000       Uiso       1.00
      C673          C  0.3368057  0.5373508  0.2591354    0.00000       Uiso       1.00
      C674          C  0.3179072  0.5377181  0.2779319    0.00000       Uiso       1.00
      C675          C  0.3184546  0.5417049  0.2983480    0.00000       Uiso       1.00
      C676          C  0.3384638  0.5445244  0.2988995    0.00000       Uiso       1.00
      C677          C  0.3569429  0.5419518  0.2797305    0.00000       Uiso       1.00
      O161          O  0.3779247  0.5385752  0.2211560    0.00000       Uiso       1.00
      H313          H  0.3362347  0.5351377  0.2438035    0.00000       Uiso       1.00
      H314          H  0.3030465  0.5350227  0.2762198    0.00000       Uiso       1.00
      H315          H  0.3401543  0.5500367  0.3145365    0.00000       Uiso       1.00
      C678          C  0.3940564  0.5401356  0.3756980    0.00000       Uiso       1.00
      C679          C  0.3944670  0.5396185  0.3564165    0.00000       Uiso       1.00
      C680          C  0.4124709  0.5372825  0.3368920    0.00000       Uiso       1.00
      C681          C  0.4129448  0.5376528  0.3179930    0.00000       Uiso       1.00
      C682          C  0.3959622  0.5416282  0.3185346    0.00000       Uiso       1.00
      C683          C  0.3782105  0.5444320  0.3385400    0.00000       Uiso       1.00
      C684          C  0.3763312  0.5418647  0.3570216    0.00000       Uiso       1.00
      O162          O  0.4105759  0.5385392  0.3780094    0.00000       Uiso       1.00
      H316          H  0.4261622  0.5350780  0.3363295    0.00000       Uiso       1.00
      H317          H  0.4268316  0.5349717  0.3031388    0.00000       Uiso       1.00
      H318          H  0.3663872  0.5499333  0.3402265    0.00000       Uiso       1.00
        B7          B  0.4012877  0.5406184  0.4012577    0.00000       Uiso       1.00
        B8          B  0.4011682  0.5406350  0.2092702    0.00000       Uiso       1.00
        B9          B  0.2091693  0.5406144  0.4013793    0.00000       Uiso       1.00
      C685          C  0.3948777  0.2287590  0.3768144    0.00000       Uiso       1.00
      C686          C  0.3958688  0.2098903  0.3580833    0.00000       Uiso       1.00
      C687          C  0.4154408  0.2092904  0.3401053    0.00000       Uiso       1.00
      C688          C  0.4158323  0.1906418  0.3210553    0.00000       Uiso       1.00
      C689          C  0.3963385  0.1726041  0.3190570    0.00000       Uiso       1.00
      C690          C  0.3767234  0.1737014  0.3372585    0.00000       Uiso       1.00
      C691          C  0.3764232  0.1913320  0.3573489    0.00000       Uiso       1.00
      O163          O  0.4121307  0.2485446  0.3798201    0.00000       Uiso       1.00
      H319          H  0.4304675  0.2233744  0.3409063    0.00000       Uiso       1.00
      H320          H  0.4315047  0.1907223  0.3079442    0.00000       Uiso       1.00
      H321          H  0.3612936  0.1614423  0.3353696    0.00000       Uiso       1.00
      C692          C  0.2423864  0.0943659  0.3949706    0.00000       Uiso       1.00
      C693          C  0.2612609  0.1130921  0.3959642    0.00000       Uiso       1.00
      C694          C  0.2618612  0.1310771  0.4155318    0.00000       Uiso       1.00
      C695          C  0.2805098  0.1501277  0.4159175    0.00000       Uiso       1.00
      C696          C  0.2985451  0.1521229  0.3964218    0.00000       Uiso       1.00
      C697          C  0.2974493  0.1339085  0.3768139    0.00000       Uiso       1.00
      C698          C  0.2798201  0.1138177  0.3765210    0.00000       Uiso       1.00
      O164          O  0.2225923  0.0913760  0.4122181    0.00000       Uiso       1.00
      H322          H  0.2477757  0.1302879  0.4305574    0.00000       Uiso       1.00
      H323          H  0.2804257  0.1632435  0.4315874    0.00000       Uiso       1.00
      H324          H  0.3097015  0.1357846  0.3613800    0.00000       Uiso       1.00
      C699          C  0.3767517  0.0762449  0.2424642    0.00000       Uiso       1.00
      C700          C  0.3580346  0.0752467  0.2613420    0.00000       Uiso       1.00
      C701          C  0.3400668  0.0556689  0.2619455    0.00000       Uiso       1.00
      C702          C  0.3210221  0.0552689  0.2806015    0.00000       Uiso       1.00
      C703          C  0.3190213  0.0747611  0.2986420    0.00000       Uiso       1.00
      C704          C  0.3372203  0.0943813  0.2975442    0.00000       Uiso       1.00
      C705          C  0.3573033  0.0946900  0.2799013    0.00000       Uiso       1.00
      O165          O  0.3797509  0.0589906  0.2226799    0.00000       Uiso       1.00
      H325          H  0.3408717  0.0406483  0.2478518    0.00000       Uiso       1.00
      H326          H  0.3079140  0.0395938  0.2805205    0.00000       Uiso       1.00
      H327          H  0.3353331  0.1098098  0.3098083    0.00000       Uiso       1.00
      C706          C  0.3940678  0.0955186  0.2415675    0.00000       Uiso       1.00
      C707          C  0.3944817  0.1148056  0.2599176    0.00000       Uiso       1.00
      C708          C  0.4124638  0.1343441  0.2590842    0.00000       Uiso       1.00
      C709          C  0.4129324  0.1532504  0.2778746    0.00000       Uiso       1.00
      C710          C  0.3959779  0.1526977  0.2983001    0.00000       Uiso       1.00
      C711          C  0.3782536  0.1326803  0.2988707    0.00000       Uiso       1.00
      C712          C  0.3763657  0.1141918  0.2797086    0.00000       Uiso       1.00
      O166          O  0.4105706  0.0932092  0.2211280    0.00000       Uiso       1.00
      H328          H  0.4261423  0.1349135  0.2437464    0.00000       Uiso       1.00
      H329          H  0.4267925  0.1681195  0.2761552    0.00000       Uiso       1.00
      H330          H  0.3664562  0.1310006  0.3145168    0.00000       Uiso       1.00
      C713          C  0.2415029  0.0770326  0.3757042    0.00000       Uiso       1.00
      C714          C  0.2598607  0.0766126  0.3564238    0.00000       Uiso       1.00
      C715          C  0.2590458  0.0586114  0.3368951    0.00000       Uiso       1.00
      C716          C  0.2778423  0.0581422  0.3179966    0.00000       Uiso       1.00
      C717          C  0.2982584  0.0751188  0.3185440    0.00000       Uiso       1.00
      C718          C  0.2988099  0.0928601  0.3385532    0.00000       Uiso       1.00
      C719          C  0.2796409  0.0947428  0.3570324    0.00000       Uiso       1.00
      O167          O  0.2210665  0.0605267  0.3780141    0.00000       Uiso       1.00
      H331          H  0.2437139  0.0449217  0.3363241    0.00000       Uiso       1.00
      H332          H  0.2761303  0.0442648  0.3031359    0.00000       Uiso       1.00
      H333          H  0.3144469  0.1046752  0.3402437    0.00000       Uiso       1.00
      C720          C  0.3756083  0.2296398  0.3941459    0.00000       Uiso       1.00
      C721          C  0.3563268  0.2112860  0.3945565    0.00000       Uiso       1.00
      C722          C  0.3368023  0.2121016  0.4125605    0.00000       Uiso       1.00
      C723          C  0.3179034  0.1933062  0.4130343    0.00000       Uiso       1.00
      C724          C  0.3184449  0.1728897  0.3960517    0.00000       Uiso       1.00
      C725          C  0.3384503  0.1723396  0.3783000    0.00000       Uiso       1.00
      C726          C  0.3569319  0.1915091  0.3764206    0.00000       Uiso       1.00
      O168          O  0.3779197  0.2500671  0.4106654    0.00000       Uiso       1.00
      H334          H  0.3362398  0.2274348  0.4262517    0.00000       Uiso       1.00
      H335          H  0.3030492  0.1950199  0.4269211    0.00000       Uiso       1.00
      H336          H  0.3401369  0.1567015  0.3664767    0.00000       Uiso       1.00
       B10          B  0.4011680  0.2619480  0.4013772    0.00000       Uiso       1.00
       B11          B  0.2091807  0.0698246  0.4012577    0.00000       Uiso       1.00
       B12          B  0.4012895  0.0699552  0.2092586    0.00000       Uiso       1.00
       B13          B  0.7385422  0.5986070  0.8725990    0.00000       Uiso       1.00
       B14          B  0.8725086  0.5986070  0.7386325    0.00000       Uiso       1.00
       B15          B  0.8725086  0.7325733  0.8725990    0.00000       Uiso       1.00
      C727          C  0.8091358  0.6235072  0.8283951    0.00000       Uiso       1.00
      C728          C  0.7711623  0.6052314  0.8477069    0.00000       Uiso       1.00
      H337          H  0.7880645  0.5893599  0.8152461    0.00000       Uiso       1.00
      O169          O  0.7511650  0.5882725  0.8500842    0.00000       Uiso       1.00
      C729          C  0.7896079  0.6046810  0.8289428    0.00000       Uiso       1.00
      C730          C  0.8476084  0.6428109  0.8092261    0.00000       Uiso       1.00
      C731          C  0.8658842  0.6234990  0.7712526    0.00000       Uiso       1.00
      H338          H  0.8817557  0.6559598  0.7881548    0.00000       Uiso       1.00
      O170          O  0.8828431  0.6211218  0.7512553    0.00000       Uiso       1.00
      C732          C  0.8664346  0.6422632  0.7896983    0.00000       Uiso       1.00
      C733          C  0.8283046  0.6619799  0.8476988    0.00000       Uiso       1.00
      C734          C  0.8476166  0.6999533  0.8659746    0.00000       Uiso       1.00
      H339          H  0.8151557  0.6830510  0.8818461    0.00000       Uiso       1.00
      O171          O  0.8499937  0.7199506  0.8829336    0.00000       Uiso       1.00
      C735          C  0.8288524  0.6815076  0.8665251    0.00000       Uiso       1.00
      C736          C  0.8283046  0.6235071  0.8092261    0.00000       Uiso       1.00
      C737          C  0.8476166  0.6052314  0.7712526    0.00000       Uiso       1.00
      O172          O  0.8499937  0.5882725  0.7512553    0.00000       Uiso       1.00
      H340          H  0.8151557  0.5893599  0.7881548    0.00000       Uiso       1.00
      C738          C  0.8288524  0.6046810  0.7896983    0.00000       Uiso       1.00
      C739          C  0.8091358  0.6428109  0.8476988    0.00000       Uiso       1.00
      C740          C  0.7711623  0.6234990  0.8659746    0.00000       Uiso       1.00
      H341          H  0.7880645  0.6559598  0.8818461    0.00000       Uiso       1.00
      O173          O  0.7511650  0.6211218  0.8829336    0.00000       Uiso       1.00
      C741          C  0.7896079  0.6422632  0.8665251    0.00000       Uiso       1.00
      C742          C  0.8476084  0.6619799  0.8283951    0.00000       Uiso       1.00
      C743          C  0.8658842  0.6999533  0.8477069    0.00000       Uiso       1.00
      H342          H  0.8817557  0.6830510  0.8152461    0.00000       Uiso       1.00
      O174          O  0.8828431  0.7199506  0.8500842    0.00000       Uiso       1.00
      C744          C  0.8664346  0.6815076  0.8289428    0.00000       Uiso       1.00
      C745          C  0.9281611  0.2287593  0.3949676    0.00000       Uiso       1.00
      C746          C  0.9270324  0.2098906  0.3959587    0.00000       Uiso       1.00
      C747          C  0.9248385  0.2092907  0.4155307    0.00000       Uiso       1.00
      C748          C  0.9248484  0.1906421  0.4159222    0.00000       Uiso       1.00
      C749          C  0.9283026  0.1726044  0.3964284    0.00000       Uiso       1.00
      C750          C  0.9308136  0.1737016  0.3768132    0.00000       Uiso       1.00
      C751          C  0.9286541  0.1913323  0.3765130    0.00000       Uiso       1.00
      O175          O  0.9276880  0.2485449  0.4122206    0.00000       Uiso       1.00
      H343          H  0.9230948  0.2233747  0.4305574    0.00000       Uiso       1.00
      H344          H  0.9223675  0.1907226  0.4315946    0.00000       Uiso       1.00
      H345          H  0.9358732  0.1614425  0.3613835    0.00000       Uiso       1.00
      C752          C  0.9281031  0.0943661  0.2424760    0.00000       Uiso       1.00
      C753          C  0.9269612  0.1130924  0.2613506    0.00000       Uiso       1.00
      C754          C  0.9247783  0.1310773  0.2619509    0.00000       Uiso       1.00
      C755          C  0.9247946  0.1501280  0.2805996    0.00000       Uiso       1.00
      C756          C  0.9282503  0.1521232  0.2986348    0.00000       Uiso       1.00
      C757          C  0.9307394  0.1339087  0.2975391    0.00000       Uiso       1.00
      C758          C  0.9285707  0.1138180  0.2799099    0.00000       Uiso       1.00
      O176          O  0.9276598  0.0913762  0.2226820    0.00000       Uiso       1.00
      H346          H  0.9230491  0.1302881  0.2478654    0.00000       Uiso       1.00
      H347          H  0.9223247  0.1632438  0.2805154    0.00000       Uiso       1.00
      H348          H  0.9357972  0.1357848  0.3097912    0.00000       Uiso       1.00
      C759          C  0.9281231  0.0762452  0.3768416    0.00000       Uiso       1.00
      C760          C  0.9269641  0.0752470  0.3581244    0.00000       Uiso       1.00
      C761          C  0.9247506  0.0556692  0.3401567    0.00000       Uiso       1.00
      C762          C  0.9247394  0.0552692  0.3211119    0.00000       Uiso       1.00
      C763          C  0.9281919  0.0747614  0.3191111    0.00000       Uiso       1.00
      C764          C  0.9307107  0.0943816  0.3373102    0.00000       Uiso       1.00
      C765          C  0.9285794  0.0946902  0.3573931    0.00000       Uiso       1.00
      O177          O  0.9276538  0.0589909  0.3798408    0.00000       Uiso       1.00
      H349          H  0.9230189  0.0406486  0.3409615    0.00000       Uiso       1.00
      H350          H  0.9222534  0.0395941  0.3080038    0.00000       Uiso       1.00
      H351          H  0.9357625  0.1098101  0.3354230    0.00000       Uiso       1.00
      C766          C  0.9309774  0.0955189  0.3941576    0.00000       Uiso       1.00
      C767          C  0.9315003  0.1148059  0.3945716    0.00000       Uiso       1.00
      C768          C  0.9338900  0.1343444  0.4125537    0.00000       Uiso       1.00
      C769          C  0.9335376  0.1532507  0.4130222    0.00000       Uiso       1.00
      C770          C  0.9295138  0.1526979  0.3960677    0.00000       Uiso       1.00
      C771          C  0.9266501  0.1326806  0.3783434    0.00000       Uiso       1.00
      C772          C  0.9292117  0.1141921  0.3764555    0.00000       Uiso       1.00
      O178          O  0.9326046  0.0932095  0.4106605    0.00000       Uiso       1.00
      H352          H  0.9361189  0.1349138  0.4262322    0.00000       Uiso       1.00
      H353          H  0.9362659  0.1681198  0.4268825    0.00000       Uiso       1.00
      H354          H  0.9211217  0.1310009  0.3665460    0.00000       Uiso       1.00
      C773          C  0.9309198  0.0770328  0.2415926    0.00000       Uiso       1.00
      C774          C  0.9314222  0.0766128  0.2599504    0.00000       Uiso       1.00
      C775          C  0.9337646  0.0586117  0.2591356    0.00000       Uiso       1.00
      C776          C  0.9333974  0.0581425  0.2779321    0.00000       Uiso       1.00
      C777          C  0.9294106  0.0751191  0.2983482    0.00000       Uiso       1.00
      C778          C  0.9265911  0.0928603  0.2988997    0.00000       Uiso       1.00
      C779          C  0.9291636  0.0947430  0.2797307    0.00000       Uiso       1.00
      O179          O  0.9325402  0.0605269  0.2211562    0.00000       Uiso       1.00
      H355          H  0.9359778  0.0449219  0.2438037    0.00000       Uiso       1.00
      H356          H  0.9360928  0.0442651  0.2762200    0.00000       Uiso       1.00
      H357          H  0.9210788  0.1046755  0.3145367    0.00000       Uiso       1.00
      C780          C  0.9309799  0.2296401  0.3756981    0.00000       Uiso       1.00
      C781          C  0.9314969  0.2112863  0.3564166    0.00000       Uiso       1.00
      C782          C  0.9338330  0.2121018  0.3368922    0.00000       Uiso       1.00
      C783          C  0.9334626  0.1933064  0.3179932    0.00000       Uiso       1.00
      C784          C  0.9294873  0.1728899  0.3185347    0.00000       Uiso       1.00
      C785          C  0.9266834  0.1723399  0.3385401    0.00000       Uiso       1.00
      C786          C  0.9292508  0.1915094  0.3570217    0.00000       Uiso       1.00
      O180          O  0.9325764  0.2500674  0.3780095    0.00000       Uiso       1.00
      H358          H  0.9360374  0.2274350  0.3363296    0.00000       Uiso       1.00
      H359          H  0.9361438  0.1950201  0.3031389    0.00000       Uiso       1.00
      H360          H  0.9211822  0.1567018  0.3402267    0.00000       Uiso       1.00
       B16          B  0.9304971  0.2619483  0.4012578    0.00000       Uiso       1.00
       B17          B  0.9304804  0.0698248  0.2092704    0.00000       Uiso       1.00
       B18          B  0.9305010  0.0699555  0.4013795    0.00000       Uiso       1.00
       B19          B  0.8725086  0.0125555  0.8725989    0.00000       Uiso       1.00
       B20          B  0.8725086  0.0125555  0.7386324    0.00000       Uiso       1.00
       B21          B  0.7385423  0.0125555  0.8725989    0.00000       Uiso       1.00
      C787          C  0.8476084  0.0140450  0.8283949    0.00000       Uiso       1.00
      C788          C  0.8658842  0.0136591  0.8477069    0.00000       Uiso       1.00
      H361          H  0.8817558  0.0139721  0.8152460    0.00000       Uiso       1.00
      O181          O  0.8828432  0.0129980  0.8500841    0.00000       Uiso       1.00
      C789          C  0.8664347  0.0138912  0.8289427    0.00000       Uiso       1.00
      C790          C  0.8283047  0.0140450  0.8092260    0.00000       Uiso       1.00
      C791          C  0.8476166  0.0136591  0.7712525    0.00000       Uiso       1.00
      H362          H  0.8151558  0.0139721  0.7881547    0.00000       Uiso       1.00
      O182          O  0.8499938  0.0129980  0.7512552    0.00000       Uiso       1.00
      C792          C  0.8288524  0.0138912  0.7896982    0.00000       Uiso       1.00
      C793          C  0.8091358  0.0140450  0.8476987    0.00000       Uiso       1.00
      C794          C  0.7711623  0.0136591  0.8659745    0.00000       Uiso       1.00
      H363          H  0.7880646  0.0139721  0.8818461    0.00000       Uiso       1.00
      O183          O  0.7511650  0.0129981  0.8829335    0.00000       Uiso       1.00
      C795          C  0.7896081  0.0138912  0.8665249    0.00000       Uiso       1.00
      C796          C  0.8476084  0.0140450  0.8092260    0.00000       Uiso       1.00
      C797          C  0.8658842  0.0136591  0.7712525    0.00000       Uiso       1.00
      O184          O  0.8828432  0.0129980  0.7512552    0.00000       Uiso       1.00
      H364          H  0.8817558  0.0139721  0.7881547    0.00000       Uiso       1.00
      C798          C  0.8664347  0.0138912  0.7896982    0.00000       Uiso       1.00
      C799          C  0.8283046  0.0140450  0.8476987    0.00000       Uiso       1.00
      C800          C  0.8476166  0.0136591  0.8659745    0.00000       Uiso       1.00
      H365          H  0.8151557  0.0139721  0.8818461    0.00000       Uiso       1.00
      O185          O  0.8499938  0.0129981  0.8829335    0.00000       Uiso       1.00
      C801          C  0.8288524  0.0138912  0.8665249    0.00000       Uiso       1.00
      C802          C  0.8091358  0.0140450  0.8283949    0.00000       Uiso       1.00
      C803          C  0.7711623  0.0136591  0.8477069    0.00000       Uiso       1.00
      H366          H  0.7880646  0.0139721  0.8152460    0.00000       Uiso       1.00
      O186          O  0.7511650  0.0129980  0.8500841    0.00000       Uiso       1.00
      C804          C  0.7896080  0.0138912  0.8289427    0.00000       Uiso       1.00
      C805          C  0.3948779  0.0943914  0.9282515    0.00000       Uiso       1.00
      C806          C  0.3958690  0.1131225  0.9271228    0.00000       Uiso       1.00
      C807          C  0.4154410  0.1311004  0.9249289    0.00000       Uiso       1.00
      C808          C  0.4158325  0.1501504  0.9249387    0.00000       Uiso       1.00
      C809          C  0.3963388  0.1521486  0.9283930    0.00000       Uiso       1.00
      C810          C  0.3767236  0.1339472  0.9309040    0.00000       Uiso       1.00
      C811          C  0.3764234  0.1138569  0.9287446    0.00000       Uiso       1.00
      O187          O  0.4121309  0.0913857  0.9277784    0.00000       Uiso       1.00
      H367          H  0.4304677  0.1302994  0.9231852    0.00000       Uiso       1.00
      H368          H  0.4315050  0.1632615  0.9224579    0.00000       Uiso       1.00
      H369          H  0.3612939  0.1358361  0.9359635    0.00000       Uiso       1.00
      C812          C  0.2423866  0.0762352  0.9281935    0.00000       Uiso       1.00
      C813          C  0.2612611  0.0752416  0.9270515    0.00000       Uiso       1.00
      C814          C  0.2618614  0.0556741  0.9248687    0.00000       Uiso       1.00
      C815          C  0.2805101  0.0552883  0.9248850    0.00000       Uiso       1.00
      C816          C  0.2985453  0.0747839  0.9283406    0.00000       Uiso       1.00
      C817          C  0.2974496  0.0943919  0.9308298    0.00000       Uiso       1.00
      C818          C  0.2798204  0.0946848  0.9286612    0.00000       Uiso       1.00
      O188          O  0.2225925  0.0589878  0.9277502    0.00000       Uiso       1.00
      H370          H  0.2477759  0.0406484  0.9231394    0.00000       Uiso       1.00
      H371          H  0.2804259  0.0396184  0.9224150    0.00000       Uiso       1.00
      H372          H  0.3097017  0.1098257  0.9358877    0.00000       Uiso       1.00
      C819          C  0.3767519  0.2287414  0.9282135    0.00000       Uiso       1.00
      C820          C  0.3580348  0.2098637  0.9270545    0.00000       Uiso       1.00
      C821          C  0.3400671  0.2092601  0.9248410    0.00000       Uiso       1.00
      C822          C  0.3210223  0.1906041  0.9248298    0.00000       Uiso       1.00
      C823          C  0.3190215  0.1725637  0.9282823    0.00000       Uiso       1.00
      C824          C  0.3372206  0.1736614  0.9308012    0.00000       Uiso       1.00
      C825          C  0.3573035  0.1913043  0.9286698    0.00000       Uiso       1.00
      O189          O  0.3797511  0.2485256  0.9277442    0.00000       Uiso       1.00
      H373          H  0.3408719  0.2233538  0.9231092    0.00000       Uiso       1.00
      H374          H  0.3079143  0.1906852  0.9223437    0.00000       Uiso       1.00
      H375          H  0.3353334  0.1613974  0.9358529    0.00000       Uiso       1.00
      C826          C  0.3940680  0.2296381  0.9310678    0.00000       Uiso       1.00
      C827          C  0.3944819  0.2112880  0.9315907    0.00000       Uiso       1.00
      C828          C  0.4124641  0.2121214  0.9339805    0.00000       Uiso       1.00
      C829          C  0.4129326  0.1933311  0.9336279    0.00000       Uiso       1.00
      C830          C  0.3959781  0.1729056  0.9296042    0.00000       Uiso       1.00
      C831          C  0.3782538  0.1723349  0.9267405    0.00000       Uiso       1.00
      C832          C  0.3763659  0.1914970  0.9293020    0.00000       Uiso       1.00
      O190          O  0.4105709  0.2500775  0.9326949    0.00000       Uiso       1.00
      H376          H  0.4261425  0.2274592  0.9362093    0.00000       Uiso       1.00
      H377          H  0.4267928  0.1950505  0.9363563    0.00000       Uiso       1.00
      H378          H  0.3664564  0.1566889  0.9212121    0.00000       Uiso       1.00
      C833          C  0.2415031  0.0955016  0.9310101    0.00000       Uiso       1.00
      C834          C  0.2598609  0.1147819  0.9315127    0.00000       Uiso       1.00
      C835          C  0.2590461  0.1343106  0.9338550    0.00000       Uiso       1.00
      C836          C  0.2778426  0.1532091  0.9334878    0.00000       Uiso       1.00
      C837          C  0.2982586  0.1526617  0.9295009    0.00000       Uiso       1.00
      C838          C  0.2988102  0.1326525  0.9266815    0.00000       Uiso       1.00
      C839          C  0.2796411  0.1141734  0.9292541    0.00000       Uiso       1.00
      O191          O  0.2210667  0.0931916  0.9326307    0.00000       Uiso       1.00
      H379          H  0.2437142  0.1348816  0.9360682    0.00000       Uiso       1.00
      H380          H  0.2761305  0.1680698  0.9361832    0.00000       Uiso       1.00
      H381          H  0.3144471  0.1309620  0.9211691    0.00000       Uiso       1.00
      C840          C  0.3756085  0.0770599  0.9310703    0.00000       Uiso       1.00
      C841          C  0.3563270  0.0766493  0.9315873    0.00000       Uiso       1.00
      C842          C  0.3368026  0.0586454  0.9339234    0.00000       Uiso       1.00
      C843          C  0.3179036  0.0581715  0.9335530    0.00000       Uiso       1.00
      C844          C  0.3184451  0.0751541  0.9295776    0.00000       Uiso       1.00
      C845          C  0.3384506  0.0929057  0.9267738    0.00000       Uiso       1.00
      C846          C  0.3569321  0.0947852  0.9293412    0.00000       Uiso       1.00
      O192          O  0.3779199  0.0605404  0.9326667    0.00000       Uiso       1.00
      H382          H  0.3362401  0.0449541  0.9361278    0.00000       Uiso       1.00
      H383          H  0.3030494  0.0442847  0.9362342    0.00000       Uiso       1.00
      H384          H  0.3401371  0.1047291  0.9212726    0.00000       Uiso       1.00
       B22          B  0.4011682  0.0698286  0.9305875    0.00000       Uiso       1.00
       B23          B  0.2091810  0.0699482  0.9305708    0.00000       Uiso       1.00
       B24          B  0.4012898  0.2619470  0.9305914    0.00000       Uiso       1.00
