data_89
_audit_creation_date              0000-00-00
_audit_creation_method            'LanYouShi'
_symmetry_space_group_name_H-M    'P1'
_cell_length_a                    68.1961975
_cell_length_b                    68.1945038
_cell_length_c                    68.1961975
_cell_angle_alpha                 119.9993973
_cell_angle_beta                  60.0001984
_cell_angle_gamma                 120.0008011
loop_
_atom_site_label
_atom_site_type_symbol
_atom_site_fract_x
_atom_site_fract_y
_atom_site_fract_z
_atom_site_U_iso_or_equiv
_atom_site_adp_type
_atom_site_occupancy
        C1          C  0.7330131  0.5952817  0.4575360    0.00000       Uiso       1.00
        C2          C  0.7205414  0.6075940  0.4593005    0.00000       Uiso       1.00
        C3          C  0.6955351  0.5970162  0.4631560    0.00000       Uiso       1.00
        C4          C  0.7205421  0.5722610  0.4592995    0.00000       Uiso       1.00
        C5          C  0.6956165  0.5615847  0.4630009    0.00000       Uiso       1.00
        C6          C  0.6824588  0.5737488  0.4651480    0.00000       Uiso       1.00
        H1          H  0.4564170  0.5361369  0.3929752    0.00000       Uiso       1.00
        H2          H  0.4559189  0.3136171  0.3926821    0.00000       Uiso       1.00
        H3          H  0.7304441  0.5619382  0.4578403    0.00000       Uiso       1.00
        C7          C  0.4047229  0.5424656  0.4047341    0.00000       Uiso       1.00
        C8          C  0.4277428  0.5407024  0.3924216    0.00000       Uiso       1.00
        C9          C  0.4384190  0.5370008  0.4029691    0.00000       Uiso       1.00
       C10          C  0.3924110  0.5407007  0.4277534    0.00000       Uiso       1.00
       C11          C  0.4029884  0.5368450  0.4383264    0.00000       Uiso       1.00
       C12          C  0.4262548  0.5348528  0.4261426    0.00000       Uiso       1.00
        H4          H  0.6863781  0.6073177  0.4650146    0.00000       Uiso       1.00
        H5          H  0.4638666  0.6070268  0.6867456    0.00000       Uiso       1.00
        H6          H  0.3736451  0.5421589  0.4380764    0.00000       Uiso       1.00
       C13          C  0.4047292  0.2669840  0.4047265    0.00000       Uiso       1.00
       C14          C  0.3924169  0.2794548  0.4277462    0.00000       Uiso       1.00
       C15          C  0.4029636  0.3043810  0.4384208    0.00000       Uiso       1.00
       C16          C  0.4277487  0.2794564  0.3924144    0.00000       Uiso       1.00
       C17          C  0.4383208  0.3044635  0.4029894    0.00000       Uiso       1.00
       C18          C  0.4261363  0.3175397  0.4262555    0.00000       Uiso       1.00
        H7          H  0.4650196  0.5440763  0.6863748    0.00000       Uiso       1.00
        H8          H  0.6867481  0.5435860  0.4638639    0.00000       Uiso       1.00
        H9          H  0.4380715  0.2695552  0.3736487    0.00000       Uiso       1.00
       C19          C  0.4575399  0.5952688  0.7330091    0.00000       Uiso       1.00
       C20          C  0.4593041  0.5722489  0.7205375    0.00000       Uiso       1.00
       C21          C  0.4631588  0.5616753  0.6955318    0.00000       Uiso       1.00
       C22          C  0.4593033  0.6075818  0.7205384    0.00000       Uiso       1.00
       C23          C  0.4630034  0.5970333  0.6956136    0.00000       Uiso       1.00
       C24          C  0.4651498  0.5738583  0.6824564    0.00000       Uiso       1.00
       H10          H  0.3929695  0.3132511  0.4564176    0.00000       Uiso       1.00
       H11          H  0.3926851  0.5349852  0.4559258    0.00000       Uiso       1.00
       C25          C  0.5000006  0.5000001  0.4999992    0.00000       Uiso       1.00
       H12          H  0.4578444  0.6263477  0.7304404    0.00000       Uiso       1.00
        F1          F  0.7334827  0.6321220  0.4573943    0.00000       Uiso       1.00
        F2          F  0.4573980  0.5587562  0.7334785    0.00000       Uiso       1.00
        F3          F  0.4412345  0.5426099  0.3678949    0.00000       Uiso       1.00
        F4          F  0.3678899  0.2665119  0.4412381    0.00000       Uiso       1.00
       C26          C  0.6554515  0.5623200  0.4695540    0.00000       Uiso       1.00
       C27          C  0.6442625  0.5671430  0.4604042    0.00000       Uiso       1.00
       C28          C  0.6191629  0.5566596  0.4646116    0.00000       Uiso       1.00
       C29          C  0.6405308  0.5464320  0.4830241    0.00000       Uiso       1.00
       C30          C  0.6154670  0.5356730  0.4871619    0.00000       Uiso       1.00
       C31          C  0.6047145  0.5408232  0.4779782    0.00000       Uiso       1.00
       H13          H  0.6482915  0.5426697  0.4907245    0.00000       Uiso       1.00
       H14          H  0.6551075  0.5788479  0.4496861    0.00000       Uiso       1.00
       C32          C  0.4376835  0.5304460  0.4373127    0.00000       Uiso       1.00
       C33          C  0.4535623  0.5169668  0.4228753    0.00000       Uiso       1.00
       C34          C  0.4643222  0.5128292  0.4330412    0.00000       Uiso       1.00
       C35          C  0.4328716  0.5396057  0.4624721    0.00000       Uiso       1.00
       C36          C  0.4433557  0.5353986  0.4728787    0.00000       Uiso       1.00
       C37          C  0.4591817  0.5220230  0.4581260    0.00000       Uiso       1.00
       H15          H  0.4211765  0.5503327  0.4740534    0.00000       Uiso       1.00
       H16          H  0.4573171  0.5092586  0.4036517    0.00000       Uiso       1.00
       C38          C  0.4373049  0.3445472  0.4376840    0.00000       Uiso       1.00
       C39          C  0.4228648  0.3594658  0.4535719    0.00000       Uiso       1.00
       C40          C  0.4330312  0.3845324  0.4643335    0.00000       Uiso       1.00
       C41          C  0.4624656  0.3557372  0.4328631    0.00000       Uiso       1.00
       C42          C  0.4728724  0.3808355  0.4433458    0.00000       Uiso       1.00
       C43          C  0.4581202  0.3952853  0.4591821    0.00000       Uiso       1.00
       H17          H  0.4740478  0.3448991  0.4211625    0.00000       Uiso       1.00
       H18          H  0.4036382  0.3516964  0.4573299    0.00000       Uiso       1.00
       C44          C  0.4695555  0.5626858  0.6554500    0.00000       Uiso       1.00
       C45          C  0.4603976  0.5375247  0.6442623    0.00000       Uiso       1.00
       C46          C  0.4646068  0.5271155  0.6191631    0.00000       Uiso       1.00
       C47          C  0.4830325  0.5771227  0.6405290    0.00000       Uiso       1.00
       C48          C  0.4871692  0.5669554  0.6154657    0.00000       Uiso       1.00
       C49          C  0.4779801  0.5418697  0.6047145    0.00000       Uiso       1.00
       H19          H  0.4907373  0.5963460  0.6482902    0.00000       Uiso       1.00
       H20          H  0.4496710  0.5259505  0.6551113    0.00000       Uiso       1.00
       C50          C  0.4557170  0.5021184  0.6081611    0.00000       Uiso       1.00
       C51          C  0.4602396  0.4918944  0.5832094    0.00000       Uiso       1.00
       C52          C  0.4382569  0.5442953  0.4978756    0.00000       Uiso       1.00
       C53          C  0.4484645  0.5397756  0.5080993    0.00000       Uiso       1.00
       H21          H  0.4261910  0.5546504  0.5095883    0.00000       Uiso       1.00
       H22          H  0.4439717  0.5467271  0.5274417    0.00000       Uiso       1.00
       H23          H  0.4453634  0.4904093  0.6188728    0.00000       Uiso       1.00
       H24          H  0.4532934  0.4725520  0.5753075    0.00000       Uiso       1.00
       C54          C  0.5794414  0.5302600  0.4823296    0.00000       Uiso       1.00
       C55          C  0.5685939  0.5357564  0.4735674    0.00000       Uiso       1.00
       C56          C  0.5433779  0.5257622  0.4785380    0.00000       Uiso       1.00
       C57          C  0.5650143  0.5145168  0.4957588    0.00000       Uiso       1.00
       C58          C  0.5399145  0.5043977  0.5003261    0.00000       Uiso       1.00
       C59          C  0.5283808  0.5096045  0.4918222    0.00000       Uiso       1.00
       H25          H  0.5072865  0.4888999  0.4525710    0.00000       Uiso       1.00
       H26          H  0.5231851  0.4643489  0.4686524    0.00000       Uiso       1.00
       C60          C  0.4697448  0.5176734  0.4684853    0.00000       Uiso       1.00
       C61          C  0.4854804  0.5042356  0.4537410    0.00000       Uiso       1.00
       C62          C  0.4956008  0.4996690  0.4641545    0.00000       Uiso       1.00
       C63          C  0.4642585  0.5264466  0.4935916    0.00000       Uiso       1.00
       C64          C  0.4742514  0.5214740  0.5038428    0.00000       Uiso       1.00
       C65          C  0.4903984  0.5081782  0.4893990    0.00000       Uiso       1.00
       H27          H  0.5356494  0.5313398  0.4725045    0.00000       Uiso       1.00
       H28          H  0.5110754  0.5474314  0.5290471    0.00000       Uiso       1.00
       C66          C  0.4684833  0.4205569  0.4697428    0.00000       Uiso       1.00
       C67          C  0.4537385  0.4349847  0.4854884    0.00000       Uiso       1.00
       C68          C  0.4641545  0.4600855  0.4956068    0.00000       Uiso       1.00
       C69          C  0.4935918  0.4314038  0.4642439    0.00000       Uiso       1.00
       C70          C  0.5038453  0.4566211  0.4742349    0.00000       Uiso       1.00
       C71          C  0.4894007  0.4716190  0.4903947    0.00000       Uiso       1.00
       H29          H  0.4724959  0.4768108  0.5356447    0.00000       Uiso       1.00
       H30          H  0.5290450  0.4927042  0.5110871    0.00000       Uiso       1.00
       C72          C  0.4823311  0.5315109  0.5794421    0.00000       Uiso       1.00
       C73          C  0.4735641  0.5064027  0.5685942    0.00000       Uiso       1.00
       C74          C  0.4785371  0.4961516  0.5433764    0.00000       Uiso       1.00
       C75          C  0.4957614  0.5462575  0.5650147    0.00000       Uiso       1.00
       C76          C  0.5003260  0.5358446  0.5399147    0.00000       Uiso       1.00
       C77          C  0.4918239  0.5105985  0.5283797    0.00000       Uiso       1.00
       H31          H  0.4525732  0.4709590  0.5073091    0.00000       Uiso       1.00
       H32          H  0.4686818  0.5275167  0.5231833    0.00000       Uiso       1.00
       C78          C  0.5080992  0.4167885  0.4484395    0.00000       Uiso       1.00
       C79          C  0.4978725  0.3918365  0.4382346    0.00000       Uiso       1.00
       C80          C  0.4287483  0.4240421  0.4905587    0.00000       Uiso       1.00
       C81          C  0.4185346  0.3991526  0.4800944    0.00000       Uiso       1.00
       C82          C  0.5832078  0.5515621  0.4602492    0.00000       Uiso       1.00
       C83          C  0.6081603  0.5617709  0.4557278    0.00000       Uiso       1.00
       C84          C  0.5759577  0.5094449  0.5047345    0.00000       Uiso       1.00
       C85          C  0.6008498  0.5199098  0.5005177    0.00000       Uiso       1.00
       C86          C  0.5047404  0.5712483  0.5759581    0.00000       Uiso       1.00
       C87          C  0.5005276  0.5814568  0.6008479    0.00000       Uiso       1.00
       C88          C  0.4905418  0.4952495  0.4287511    0.00000       Uiso       1.00
       C89          C  0.4800763  0.4994647  0.4185410    0.00000       Uiso       1.00
       H33          H  0.5025179  0.4847837  0.4170436    0.00000       Uiso       1.00
       H34          H  0.4842737  0.4921869  0.3992337    0.00000       Uiso       1.00
       H35          H  0.3992259  0.3913210  0.4842993    0.00000       Uiso       1.00
       H36          H  0.4170405  0.4347751  0.5025420    0.00000       Uiso       1.00
       H37          H  0.5274437  0.4246887  0.4439375    0.00000       Uiso       1.00
       H38          H  0.5095841  0.3811273  0.4261604    0.00000       Uiso       1.00
       H39          H  0.6086869  0.5157062  0.5077851    0.00000       Uiso       1.00
       H40          H  0.5652273  0.4974609  0.5151923    0.00000       Uiso       1.00
       H41          H  0.5753091  0.5560637  0.4533075    0.00000       Uiso       1.00
       H42          H  0.6188738  0.5738465  0.4453813    0.00000       Uiso       1.00
       H43          H  0.5077993  0.6007639  0.6086808    0.00000       Uiso       1.00
       H44          H  0.5151962  0.5829569  0.5652251    0.00000       Uiso       1.00
       C90          C  0.7330261  0.5952688  0.9818933    0.00000       Uiso       1.00
       C91          C  0.7205548  0.5722486  0.9695809    0.00000       Uiso       1.00
       C92          C  0.6955487  0.5616736  0.9801577    0.00000       Uiso       1.00
       C93          C  0.7205549  0.6075801  0.0049123    0.00000       Uiso       1.00
       C94          C  0.6956295  0.5970302  0.0155877    0.00000       Uiso       1.00
       C95          C  0.6824722  0.5738548  0.0034236    0.00000       Uiso       1.00
       H45          H  0.4564381  0.3132350  0.0410279    0.00000       Uiso       1.00
       H46          H  0.4559357  0.5349595  0.2635423    0.00000       Uiso       1.00
       H47          H  0.7304567  0.6263462  0.0152351    0.00000       Uiso       1.00
       C96          C  0.4047447  0.2669677  0.0346980    0.00000       Uiso       1.00
       C97          C  0.4277646  0.2794398  0.0364618    0.00000       Uiso       1.00
       C98          C  0.4384400  0.3043658  0.0401636    0.00000       Uiso       1.00
       C99          C  0.3924320  0.2794391  0.0364626    0.00000       Uiso       1.00
      C100          C  0.4030085  0.3044459  0.0403185    0.00000       Uiso       1.00
      C101          C  0.4262750  0.3175223  0.0423113    0.00000       Uiso       1.00
       H48          H  0.6863920  0.5440732  0.9698561    0.00000       Uiso       1.00
       H49          H  0.4638751  0.5435684  0.9701417    0.00000       Uiso       1.00
       H50          H  0.3736660  0.2695367  0.0350040    0.00000       Uiso       1.00
      C102          C  0.4047456  0.5424429  0.3101729    0.00000       Uiso       1.00
      C103          C  0.3924328  0.5406789  0.2977021    0.00000       Uiso       1.00
      C104          C  0.4029792  0.5369752  0.2727768    0.00000       Uiso       1.00
      C105          C  0.4277655  0.5406796  0.2977014    0.00000       Uiso       1.00
      C106          C  0.4383374  0.5368210  0.2726952    0.00000       Uiso       1.00
      C107          C  0.4261523  0.5348258  0.2596191    0.00000       Uiso       1.00
       H51          H  0.4650268  0.6072996  0.0330901    0.00000       Uiso       1.00
       H52          H  0.6867608  0.6070226  0.0335858    0.00000       Uiso       1.00
       H53          H  0.4380887  0.5421384  0.3076026    0.00000       Uiso       1.00
      C108          C  0.4575461  0.5952628  0.9818993    0.00000       Uiso       1.00
      C109          C  0.4593104  0.6075743  0.0049181    0.00000       Uiso       1.00
      C110          C  0.4631660  0.5969970  0.0154915    0.00000       Uiso       1.00
      C111          C  0.4593103  0.5722429  0.9695867    0.00000       Uiso       1.00
      C112          C  0.4630112  0.5615666  0.9801350    0.00000       Uiso       1.00
      C113          C  0.4651578  0.5737300  0.0033088    0.00000       Uiso       1.00
       H54          H  0.3929847  0.5361074  0.2639068    0.00000       Uiso       1.00
       H55          H  0.3927047  0.3136012  0.0421781    0.00000       Uiso       1.00
      C114          C  0.5000150  0.4999823  0.0771655    0.00000       Uiso       1.00
       H56          H  0.4578513  0.5619202  0.9508212    0.00000       Uiso       1.00
        F5          F  0.7334964  0.5587571  0.9450538    0.00000       Uiso       1.00
        F6          F  0.4574035  0.6321017  0.0184105    0.00000       Uiso       1.00
        F7          F  0.4412572  0.2664981  0.0345546    0.00000       Uiso       1.00
        F8          F  0.3679055  0.5425847  0.3106440    0.00000       Uiso       1.00
      C115          C  0.6554651  0.5626802  0.0148514    0.00000       Uiso       1.00
      C116          C  0.6442769  0.5375177  0.0100281    0.00000       Uiso       1.00
      C117          C  0.6191773  0.5271068  0.0205105    0.00000       Uiso       1.00
      C118          C  0.6405437  0.5771163  0.0307386    0.00000       Uiso       1.00
      C119          C  0.6154801  0.5669473  0.0414966    0.00000       Uiso       1.00
      C120          C  0.6047283  0.5418601  0.0363462    0.00000       Uiso       1.00
       H57          H  0.6483038  0.5963402  0.0345011    0.00000       Uiso       1.00
       H58          H  0.6551223  0.5259411  0.9983243    0.00000       Uiso       1.00
      C121          C  0.4377028  0.3445286  0.0467184    0.00000       Uiso       1.00
      C122          C  0.4535817  0.3594502  0.0601976    0.00000       Uiso       1.00
      C123          C  0.4643408  0.3845142  0.0643354    0.00000       Uiso       1.00
      C124          C  0.4328900  0.3557163  0.0375588    0.00000       Uiso       1.00
      C125          C  0.4433733  0.3808149  0.0417662    0.00000       Uiso       1.00
      C126          C  0.4591993  0.3952647  0.0551419    0.00000       Uiso       1.00
       H59          H  0.4211948  0.3448750  0.0268318    0.00000       Uiso       1.00
       H60          H  0.4573371  0.3516896  0.0679056    0.00000       Uiso       1.00
      C127          C  0.4373206  0.5304167  0.2326126    0.00000       Uiso       1.00
      C128          C  0.4228803  0.5169452  0.2176941    0.00000       Uiso       1.00
      C129          C  0.4330465  0.5128078  0.1926283    0.00000       Uiso       1.00
      C130          C  0.4624811  0.5395685  0.2214236    0.00000       Uiso       1.00
      C131          C  0.4728877  0.5353609  0.1963262    0.00000       Uiso       1.00
      C132          C  0.4581355  0.5219945  0.1818764    0.00000       Uiso       1.00
       H61          H  0.4740635  0.5502887  0.2322616    0.00000       Uiso       1.00
       H62          H  0.4036538  0.5092445  0.2254627    0.00000       Uiso       1.00
      C133          C  0.4695645  0.5623017  0.0144810    0.00000       Uiso       1.00
      C134          C  0.4604068  0.5671160  0.0396412    0.00000       Uiso       1.00
      C135          C  0.4646168  0.5566352  0.0500502    0.00000       Uiso       1.00
      C136          C  0.4830421  0.5464219  0.0000447    0.00000       Uiso       1.00
      C137          C  0.4871798  0.5356627  0.0102118    0.00000       Uiso       1.00
      C138          C  0.4779909  0.5408070  0.0352967    0.00000       Uiso       1.00
       H63          H  0.4907468  0.5426663  0.9808229    0.00000       Uiso       1.00
       H64          H  0.4496797  0.5788117  0.0512149    0.00000       Uiso       1.00
      C139          C  0.4557272  0.5617394  0.0750464    0.00000       Uiso       1.00
      C140          C  0.4602508  0.5515345  0.0852702    0.00000       Uiso       1.00
      C141          C  0.4382736  0.3918162  0.0328697    0.00000       Uiso       1.00
      C142          C  0.4484804  0.4167679  0.0373896    0.00000       Uiso       1.00
       H65          H  0.4262076  0.3811072  0.0225144    0.00000       Uiso       1.00
       H66          H  0.4439870  0.4246658  0.0304381    0.00000       Uiso       1.00
       H67          H  0.4453732  0.5738056  0.0867549    0.00000       Uiso       1.00
       H68          H  0.4533048  0.5560278  0.1046118    0.00000       Uiso       1.00
      C143          C  0.5794554  0.5314997  0.0469085    0.00000       Uiso       1.00
      C144          C  0.5686088  0.5063929  0.0414119    0.00000       Uiso       1.00
      C145          C  0.5433929  0.4961398  0.0514052    0.00000       Uiso       1.00
      C146          C  0.5650277  0.5462437  0.0626510    0.00000       Uiso       1.00
      C147          C  0.5399281  0.5358284  0.0727691    0.00000       Uiso       1.00
      C148          C  0.5283950  0.5105832  0.0675621    0.00000       Uiso       1.00
       H69          H  0.5073027  0.4709402  0.0882655    0.00000       Uiso       1.00
       H70          H  0.5231998  0.5274721  0.1128163    0.00000       Uiso       1.00
      C149          C  0.4697617  0.4205374  0.0594917    0.00000       Uiso       1.00
      C150          C  0.4854973  0.4349671  0.0729295    0.00000       Uiso       1.00
      C151          C  0.4956170  0.4600684  0.0774963    0.00000       Uiso       1.00
      C152          C  0.4642745  0.4313840  0.0507186    0.00000       Uiso       1.00
      C153          C  0.4742666  0.4566014  0.0556914    0.00000       Uiso       1.00
      C154          C  0.4904137  0.4716012  0.0689873    0.00000       Uiso       1.00
       H71          H  0.5356649  0.4767996  0.0458275    0.00000       Uiso       1.00
       H72          H  0.5110891  0.4926755  0.0297358    0.00000       Uiso       1.00
      C155          C  0.4684983  0.5176480  0.1566058    0.00000       Uiso       1.00
      C156          C  0.4537533  0.5042201  0.1421779    0.00000       Uiso       1.00
      C157          C  0.4641691  0.4996551  0.1170781    0.00000       Uiso       1.00
      C158          C  0.4936067  0.5264127  0.1457598    0.00000       Uiso       1.00
      C159          C  0.5038599  0.5214410  0.1205434    0.00000       Uiso       1.00
      C160          C  0.4894152  0.5081577  0.1055456    0.00000       Uiso       1.00
       H73          H  0.4725087  0.5313101  0.1003536    0.00000       Uiso       1.00
       H74          H  0.5290580  0.5474124  0.0844620    0.00000       Uiso       1.00
      C161          C  0.4823428  0.5302444  0.0456552    0.00000       Uiso       1.00
      C162          C  0.4735760  0.5357366  0.0707625    0.00000       Uiso       1.00
      C163          C  0.4785499  0.5257431  0.0810134    0.00000       Uiso       1.00
      C164          C  0.4957736  0.5145019  0.0309093    0.00000       Uiso       1.00
      C165          C  0.5003392  0.5043794  0.0413220    0.00000       Uiso       1.00
      C166          C  0.4918373  0.5095873  0.0665671    0.00000       Uiso       1.00
       H75          H  0.4525878  0.4889020  0.1062045    0.00000       Uiso       1.00
       H76          H  0.4686963  0.4643292  0.0496487    0.00000       Uiso       1.00
      C167          C  0.5081142  0.5397317  0.1603751    0.00000       Uiso       1.00
      C168          C  0.4978877  0.5442508  0.1853262    0.00000       Uiso       1.00
      C169          C  0.4287632  0.4952409  0.1531196    0.00000       Uiso       1.00
      C170          C  0.4185498  0.4994512  0.1780081    0.00000       Uiso       1.00
      C171          C  0.5832233  0.4918843  0.0256069    0.00000       Uiso       1.00
      C172          C  0.6081755  0.5021085  0.0153991    0.00000       Uiso       1.00
      C173          C  0.5759704  0.5712355  0.0677230    0.00000       Uiso       1.00
      C174          C  0.6008623  0.5814478  0.0572591    0.00000       Uiso       1.00
      C175          C  0.5047525  0.5094346  0.0059194    0.00000       Uiso       1.00
      C176          C  0.5005388  0.5199037  0.9957117    0.00000       Uiso       1.00
      C177          C  0.4905597  0.4240249  0.0819154    0.00000       Uiso       1.00
      C178          C  0.4800950  0.3991335  0.0777000    0.00000       Uiso       1.00
       H77          H  0.5025358  0.4347599  0.0923813    0.00000       Uiso       1.00
       H78          H  0.4842930  0.3913015  0.0849777    0.00000       Uiso       1.00
       H79          H  0.3992411  0.4921774  0.1858390    0.00000       Uiso       1.00
       H80          H  0.4170553  0.4847828  0.1423866    0.00000       Uiso       1.00
       H81          H  0.5274587  0.5466754  0.1524756    0.00000       Uiso       1.00
       H82          H  0.5095994  0.5545980  0.1960354    0.00000       Uiso       1.00
       H83          H  0.6086988  0.6007565  0.0614628    0.00000       Uiso       1.00
       H84          H  0.5652394  0.5829458  0.0797065    0.00000       Uiso       1.00
       H85          H  0.5753251  0.4725417  0.0211052    0.00000       Uiso       1.00
       H86          H  0.6188896  0.4904009  0.0033240    0.00000       Uiso       1.00
       H87          H  0.5078103  0.5157021  0.9764054    0.00000       Uiso       1.00
       H88          H  0.5152087  0.4974504  0.9942120    0.00000       Uiso       1.00
      C179          C  0.7330151  0.1196537  0.9819080    0.00000       Uiso       1.00
      C180          C  0.7205442  0.1178884  0.0049266    0.00000       Uiso       1.00
      C181          C  0.6955379  0.1140321  0.0155007    0.00000       Uiso       1.00
      C182          C  0.7205433  0.1178898  0.9695962    0.00000       Uiso       1.00
      C183          C  0.6956177  0.1141876  0.9801450    0.00000       Uiso       1.00
      C184          C  0.6824608  0.1120397  0.0033189    0.00000       Uiso       1.00
       H89          H  0.4564249  0.1842088  0.2639261    0.00000       Uiso       1.00
       H90          H  0.4559163  0.1845011  0.0422079    0.00000       Uiso       1.00
       H91          H  0.7304447  0.1193492  0.9508308    0.00000       Uiso       1.00
      C185          C  0.4047320  0.1724483  0.3101909    0.00000       Uiso       1.00
      C186          C  0.4277516  0.1847617  0.2977197    0.00000       Uiso       1.00
      C187          C  0.4384270  0.1742142  0.2727946    0.00000       Uiso       1.00
      C188          C  0.3924197  0.1494281  0.2977195    0.00000       Uiso       1.00
      C189          C  0.4029963  0.1388550  0.2727135    0.00000       Uiso       1.00
      C190          C  0.4262624  0.1510397  0.2596381    0.00000       Uiso       1.00
       H92          H  0.6863816  0.1121733  0.0331004    0.00000       Uiso       1.00
       H93          H  0.4638690  0.8904305  0.0335988    0.00000       Uiso       1.00
       H94          H  0.3736541  0.1391044  0.3076210    0.00000       Uiso       1.00
      C191          C  0.4047253  0.1724549  0.0347234    0.00000       Uiso       1.00
      C192          C  0.3924133  0.1494343  0.0364870    0.00000       Uiso       1.00
      C193          C  0.4029607  0.1387598  0.0401908    0.00000       Uiso       1.00
      C194          C  0.4277453  0.1847680  0.0364872    0.00000       Uiso       1.00
      C195          C  0.4383180  0.1741930  0.0403460    0.00000       Uiso       1.00
      C196          C  0.4261337  0.1509260  0.0423407    0.00000       Uiso       1.00
       H95          H  0.4650189  0.8908016  0.9698696    0.00000       Uiso       1.00
       H96          H  0.6867486  0.1133243  0.9701528    0.00000       Uiso       1.00
       H97          H  0.4380678  0.2035344  0.0350288    0.00000       Uiso       1.00
      C197          C  0.4575406  0.8441660  0.9819063    0.00000       Uiso       1.00
      C198          C  0.4593040  0.8566380  0.9695947    0.00000       Uiso       1.00
      C199          C  0.4631588  0.8816444  0.9801718    0.00000       Uiso       1.00
      C200          C  0.4593049  0.8566366  0.0049250    0.00000       Uiso       1.00
      C201          C  0.4630050  0.8815622  0.0156012    0.00000       Uiso       1.00
      C202          C  0.4651507  0.8947198  0.0034377    0.00000       Uiso       1.00
       H98          H  0.3929667  0.1207623  0.0410583    0.00000       Uiso       1.00
       H99          H  0.3926928  0.1212548  0.2635582    0.00000       Uiso       1.00
      C203          C  0.5000027  0.0771827  0.0771848    0.00000       Uiso       1.00
      H100          H  0.4578466  0.8467343  0.0152473    0.00000       Uiso       1.00
        F9          F  0.7334864  0.1197950  0.0184181    0.00000       Uiso       1.00
       F10          F  0.4573970  0.8436965  0.9450679    0.00000       Uiso       1.00
       F11          F  0.4412437  0.2092895  0.3106614    0.00000       Uiso       1.00
       F12          F  0.3678860  0.1359414  0.0345805    0.00000       Uiso       1.00
      C204          C  0.6554536  0.1076328  0.0144925    0.00000       Uiso       1.00
      C205          C  0.6442653  0.1167826  0.0396541    0.00000       Uiso       1.00
      C206          C  0.6191657  0.1125744  0.0500640    0.00000       Uiso       1.00
      C207          C  0.6405321  0.0941619  0.0000565    0.00000       Uiso       1.00
      C208          C  0.6154682  0.0900233  0.0102245    0.00000       Uiso       1.00
      C209          C  0.6047165  0.0992071  0.0353107    0.00000       Uiso       1.00
      H101          H  0.6482921  0.0864620  0.9808338    0.00000       Uiso       1.00
      H102          H  0.6551108  0.1275012  0.0512312    0.00000       Uiso       1.00
      C210          C  0.4376903  0.1398696  0.2326328    0.00000       Uiso       1.00
      C211          C  0.4535685  0.1543077  0.2177121    0.00000       Uiso       1.00
      C212          C  0.4643277  0.1441417  0.1926490    0.00000       Uiso       1.00
      C213          C  0.4328783  0.1147094  0.2214452    0.00000       Uiso       1.00
      C214          C  0.4433617  0.1043027  0.1963475    0.00000       Uiso       1.00
      C215          C  0.4591870  0.1190561  0.1818987    0.00000       Uiso       1.00
      H103          H  0.4211837  0.1031275  0.2322859    0.00000       Uiso       1.00
      H104          H  0.4573234  0.1735319  0.2254726    0.00000       Uiso       1.00
      C216          C  0.4373030  0.1394976  0.0467500    0.00000       Uiso       1.00
      C217          C  0.4228635  0.1236090  0.0602206    0.00000       Uiso       1.00
      C218          C  0.4330306  0.1128474  0.0643581    0.00000       Uiso       1.00
      C219          C  0.4624637  0.1443193  0.0375990    0.00000       Uiso       1.00
      C220          C  0.4728712  0.1338366  0.0418067    0.00000       Uiso       1.00
      C221          C  0.4581196  0.1179996  0.0551723    0.00000       Uiso       1.00
      H105          H  0.4740455  0.1560205  0.0268794    0.00000       Uiso       1.00
      H106          H  0.4036369  0.1198503  0.0679206    0.00000       Uiso       1.00
      C222          C  0.4695565  0.9217269  0.0148658    0.00000       Uiso       1.00
      C223          C  0.4603979  0.9329146  0.0100514    0.00000       Uiso       1.00
      C224          C  0.4646072  0.9580147  0.0205321    0.00000       Uiso       1.00
      C225          C  0.4830342  0.9366487  0.0307455    0.00000       Uiso       1.00
      C226          C  0.4871711  0.9617128  0.0415046    0.00000       Uiso       1.00
      C227          C  0.4779813  0.9724640  0.0363603    0.00000       Uiso       1.00
      H107          H  0.4907396  0.9288875  0.0345018    0.00000       Uiso       1.00
      H108          H  0.4496708  0.9220656  0.9983564    0.00000       Uiso       1.00
      C228          C  0.4557167  0.9690167  0.0154279    0.00000       Uiso       1.00
      C229          C  0.4602395  0.9939691  0.0256328    0.00000       Uiso       1.00
      C230          C  0.4382627  0.0793050  0.1853463    0.00000       Uiso       1.00
      C231          C  0.4484696  0.0690813  0.1603956    0.00000       Uiso       1.00
      H109          H  0.4261973  0.0675918  0.1960547    0.00000       Uiso       1.00
      H110          H  0.4439767  0.0497383  0.1524977    0.00000       Uiso       1.00
      H111          H  0.4453625  0.9583043  0.0033618    0.00000       Uiso       1.00
      H112          H  0.4532934  0.0018711  0.0211394    0.00000       Uiso       1.00
      C232          C  0.5794435  0.0948548  0.0456702    0.00000       Uiso       1.00
      C233          C  0.5685968  0.1036171  0.0707761    0.00000       Uiso       1.00
      C234          C  0.5433809  0.0986457  0.0810283    0.00000       Uiso       1.00
      C235          C  0.5650156  0.0814249  0.0309262    0.00000       Uiso       1.00
      C236          C  0.5399159  0.0768568  0.0413407    0.00000       Uiso       1.00
      C237          C  0.5283828  0.0853606  0.0665848    0.00000       Uiso       1.00
      H113          H  0.5072892  0.1246124  0.1062264    0.00000       Uiso       1.00
      H114          H  0.5231858  0.1085308  0.0496964    0.00000       Uiso       1.00
      C238          C  0.4697494  0.1086968  0.1566268    0.00000       Uiso       1.00
      C239          C  0.4854843  0.1234419  0.1421979    0.00000       Uiso       1.00
      C240          C  0.4956040  0.1130283  0.1170976    0.00000       Uiso       1.00
      C241          C  0.4642629  0.0835897  0.1457803    0.00000       Uiso       1.00
      C242          C  0.4742551  0.0733384  0.1205638    0.00000       Uiso       1.00
      C243          C  0.4904015  0.0877830  0.1055649    0.00000       Uiso       1.00
      H115          H  0.5356528  0.1046792  0.1003677    0.00000       Uiso       1.00
      H116          H  0.5110788  0.0481344  0.0844915    0.00000       Uiso       1.00
      C244          C  0.4684833  0.1074389  0.0595189    0.00000       Uiso       1.00
      C245          C  0.4537390  0.0916926  0.0729460    0.00000       Uiso       1.00
      C246          C  0.4641557  0.0815742  0.0775111    0.00000       Uiso       1.00
      C247          C  0.4935918  0.1129386  0.0507551    0.00000       Uiso       1.00
      C248          C  0.5038460  0.1029477  0.0557268    0.00000       Uiso       1.00
      C249          C  0.4894020  0.0867871  0.0690093    0.00000       Uiso       1.00
      H117          H  0.4724966  0.0415354  0.0458571    0.00000       Uiso       1.00
      H118          H  0.5290458  0.0660952  0.0297566    0.00000       Uiso       1.00
      C250          C  0.4823324  0.9977372  0.0469228    0.00000       Uiso       1.00
      C251          C  0.4735653  0.0085852  0.0414305    0.00000       Uiso       1.00
      C252          C  0.4785385  0.0338037  0.0514241    0.00000       Uiso       1.00
      C253          C  0.4957639  0.0121654  0.0626653    0.00000       Uiso       1.00
      C254          C  0.5003287  0.0372663  0.0727876    0.00000       Uiso       1.00
      C255          C  0.4918259  0.0488012  0.0675797    0.00000       Uiso       1.00
      H119          H  0.4525750  0.0698713  0.0882636    0.00000       Uiso       1.00
      H120          H  0.4686853  0.0539973  0.1128360    0.00000       Uiso       1.00
      C256          C  0.5080987  0.1287437  0.0374369    0.00000       Uiso       1.00
      C257          C  0.4978713  0.1389486  0.0329177    0.00000       Uiso       1.00
      C258          C  0.4287488  0.0866215  0.0819244    0.00000       Uiso       1.00
      C259          C  0.4185346  0.0970857  0.0777140    0.00000       Uiso       1.00
      C260          C  0.5832114  0.1169361  0.0852848    0.00000       Uiso       1.00
      C261          C  0.6081638  0.1214582  0.0750615    0.00000       Uiso       1.00
      C262          C  0.5759583  0.0724492  0.0059354    0.00000       Uiso       1.00
      C263          C  0.6008503  0.0766673  0.9957246    0.00000       Uiso       1.00
      C264          C  0.5047438  0.0012221  0.0677325    0.00000       Uiso       1.00
      C265          C  0.5005302  0.9763314  0.0572641    0.00000       Uiso       1.00
      C266          C  0.4905459  0.1484326  0.1531401    0.00000       Uiso       1.00
      C267          C  0.4800812  0.1586427  0.1780306    0.00000       Uiso       1.00
      H121          H  0.5025215  0.1601407  0.1424057    0.00000       Uiso       1.00
      H122          H  0.4842786  0.1779506  0.1858625    0.00000       Uiso       1.00
      H123          H  0.3992258  0.0928802  0.0849870    0.00000       Uiso       1.00
      H124          H  0.4170415  0.0746376  0.0923819    0.00000       Uiso       1.00
      H125          H  0.5274432  0.1332464  0.0304938    0.00000       Uiso       1.00
      H126          H  0.5095825  0.1510234  0.0225711    0.00000       Uiso       1.00
      H127          H  0.6086869  0.0693998  0.9764167    0.00000       Uiso       1.00
      H128          H  0.5652272  0.0619914  0.9942258    0.00000       Uiso       1.00
      H129          H  0.5753133  0.1238778  0.1046266    0.00000       Uiso       1.00
      H130          H  0.6188780  0.1318053  0.0867690    0.00000       Uiso       1.00
      H131          H  0.5078024  0.9684985  0.0614658    0.00000       Uiso       1.00
      H132          H  0.5152000  0.0119556  0.0797173    0.00000       Uiso       1.00
      C268          C  0.9819106  0.1196653  0.7330125    0.00000       Uiso       1.00
      C269          C  0.9695978  0.1179013  0.7205417    0.00000       Uiso       1.00
      C270          C  0.9801742  0.1140467  0.6955360    0.00000       Uiso       1.00
      C271          C  0.0049298  0.1179021  0.7205409    0.00000       Uiso       1.00
      C272          C  0.0156049  0.1142016  0.6956159    0.00000       Uiso       1.00
      C273          C  0.0034403  0.1120551  0.6824592    0.00000       Uiso       1.00
      H133          H  0.0410415  0.1842418  0.4564300    0.00000       Uiso       1.00
      H134          H  0.2635600  0.1845336  0.4559222    0.00000       Uiso       1.00
      H135          H  0.0152530  0.1193609  0.7304422    0.00000       Uiso       1.00
      C274          C  0.0347105  0.1724847  0.4047380    0.00000       Uiso       1.00
      C275          C  0.0364747  0.1847968  0.4277574    0.00000       Uiso       1.00
      C276          C  0.0401768  0.1742482  0.4384323    0.00000       Uiso       1.00
      C277          C  0.0364746  0.1494648  0.3924253    0.00000       Uiso       1.00
      C278          C  0.0403308  0.1388907  0.4030015    0.00000       Uiso       1.00
      C279          C  0.0423241  0.1510740  0.4262674    0.00000       Uiso       1.00
      H136          H  0.9698724  0.1121885  0.6863797    0.00000       Uiso       1.00
      H137          H  0.9701518  0.8904561  0.4638669    0.00000       Uiso       1.00
      H138          H  0.0350156  0.1391422  0.3736598    0.00000       Uiso       1.00
      C280          C  0.3101904  0.1724906  0.4047321    0.00000       Uiso       1.00
      C281          C  0.2977190  0.1494703  0.3924198    0.00000       Uiso       1.00
      C282          C  0.2727934  0.1387949  0.4029665    0.00000       Uiso       1.00
      C283          C  0.2977191  0.1848024  0.4277518    0.00000       Uiso       1.00
      C284          C  0.2727126  0.1742264  0.4383240    0.00000       Uiso       1.00
      C285          C  0.2596359  0.1509598  0.4261394    0.00000       Uiso       1.00
      H139          H  0.0331014  0.8908264  0.4650171    0.00000       Uiso       1.00
      H140          H  0.0336031  0.1133388  0.6867470    0.00000       Uiso       1.00
      H141          H  0.3076209  0.2035685  0.4380746    0.00000       Uiso       1.00
      C286          C  0.9819093  0.8441902  0.4575375    0.00000       Uiso       1.00
      C287          C  0.0049286  0.8566623  0.4593012    0.00000       Uiso       1.00
      C288          C  0.0155024  0.8816691  0.4631566    0.00000       Uiso       1.00
      C289          C  0.9695966  0.8566616  0.4593020    0.00000       Uiso       1.00
      C290          C  0.9801453  0.8815876  0.4630028    0.00000       Uiso       1.00
      C291          C  0.0033196  0.8947452  0.4651488    0.00000       Uiso       1.00
      H142          H  0.2639230  0.1207977  0.3929723    0.00000       Uiso       1.00
      H143          H  0.0421902  0.1212908  0.3926977    0.00000       Uiso       1.00
      C292          C  0.0771799  0.0772100  0.5000044    0.00000       Uiso       1.00
      H144          H  0.9508306  0.8467593  0.4578435    0.00000       Uiso       1.00
       F13          F  0.9450704  0.1198071  0.7334836    0.00000       Uiso       1.00
       F14          F  0.0184211  0.8437207  0.4573940    0.00000       Uiso       1.00
       F15          F  0.0345679  0.2093242  0.4412498    0.00000       Uiso       1.00
       F16          F  0.3106607  0.1359788  0.3678927    0.00000       Uiso       1.00
      C293          C  0.0148677  0.1076500  0.6554524    0.00000       Uiso       1.00
      C294          C  0.0100442  0.1168008  0.6442646    0.00000       Uiso       1.00
      C295          C  0.0205264  0.1125942  0.6191654    0.00000       Uiso       1.00
      C296          C  0.0307549  0.0941798  0.6405309    0.00000       Uiso       1.00
      C297          C  0.0415127  0.0900428  0.6154675    0.00000       Uiso       1.00
      C298          C  0.0363620  0.0992276  0.6047164    0.00000       Uiso       1.00
      H145          H  0.0345176  0.0864786  0.6482907    0.00000       Uiso       1.00
      H146          H  0.9983405  0.1275190  0.6551102    0.00000       Uiso       1.00
      C299          C  0.0467314  0.1399029  0.4376948    0.00000       Uiso       1.00
      C300          C  0.0602113  0.1543401  0.4535731    0.00000       Uiso       1.00
      C301          C  0.0643493  0.1441732  0.4643317    0.00000       Uiso       1.00
      C302          C  0.0375714  0.1147424  0.4328822    0.00000       Uiso       1.00
      C303          C  0.0417790  0.1043347  0.4433651    0.00000       Uiso       1.00
      C304          C  0.0551554  0.1190874  0.4591905    0.00000       Uiso       1.00
      H147          H  0.0268440  0.1031610  0.4211875    0.00000       Uiso       1.00
      H148          H  0.0679197  0.1735646  0.4573283    0.00000       Uiso       1.00
      C305          C  0.2326291  0.1395304  0.4373080    0.00000       Uiso       1.00
      C306          C  0.2177099  0.1236424  0.4228684    0.00000       Uiso       1.00
      C307          C  0.1926439  0.1128799  0.4330349    0.00000       Uiso       1.00
      C308          C  0.2214404  0.1443504  0.4624683    0.00000       Uiso       1.00
      C309          C  0.1963426  0.1338668  0.4728751    0.00000       Uiso       1.00
      C310          C  0.1818922  0.1180306  0.4581235    0.00000       Uiso       1.00
      H149          H  0.2322789  0.1560511  0.4740501    0.00000       Uiso       1.00
      H150          H  0.2254784  0.1198850  0.4036421    0.00000       Uiso       1.00
      C311          C  0.0144922  0.9217528  0.4695552    0.00000       Uiso       1.00
      C312          C  0.0396528  0.9329413  0.4603972    0.00000       Uiso       1.00
      C313          C  0.0500622  0.9580415  0.4646071    0.00000       Uiso       1.00
      C314          C  0.0000561  0.9366739  0.4830330    0.00000       Uiso       1.00
      C315          C  0.0102235  0.9617383  0.4871705    0.00000       Uiso       1.00
      C316          C  0.0353087  0.9724903  0.4779812    0.00000       Uiso       1.00
      H151          H  0.9808339  0.9289121  0.4907379    0.00000       Uiso       1.00
      H152          H  0.0512264  0.9220921  0.4496701    0.00000       Uiso       1.00
      C317          C  0.0750588  0.9690444  0.4557171    0.00000       Uiso       1.00
      C318          C  0.0852830  0.9939971  0.4602405    0.00000       Uiso       1.00
      C319          C  0.0328822  0.0793368  0.4382656    0.00000       Uiso       1.00
      C320          C  0.0374023  0.0691121  0.4484720    0.00000       Uiso       1.00
      H153          H  0.0225264  0.0676241  0.4262001    0.00000       Uiso       1.00
      H154          H  0.0304505  0.0497689  0.4439787    0.00000       Uiso       1.00
      H155          H  0.0867672  0.9583325  0.4453630    0.00000       Uiso       1.00
      H156          H  0.1046255  0.0018998  0.4532941    0.00000       Uiso       1.00
      C321          C  0.0469239  0.0948770  0.5794438    0.00000       Uiso       1.00
      C322          C  0.0414271  0.1036403  0.5685975    0.00000       Uiso       1.00
      C323          C  0.0514201  0.0986705  0.5433820    0.00000       Uiso       1.00
      C324          C  0.0626664  0.0814477  0.5650159    0.00000       Uiso       1.00
      C325          C  0.0727842  0.0768812  0.5399166    0.00000       Uiso       1.00
      C326          C  0.0675770  0.0853861  0.5283840    0.00000       Uiso       1.00
      H157          H  0.0882805  0.1246403  0.5072919    0.00000       Uiso       1.00
      H158          H  0.1128321  0.1085571  0.5231879    0.00000       Uiso       1.00
      C327          C  0.0595054  0.1087270  0.4697524    0.00000       Uiso       1.00
      C328          C  0.0729438  0.1234713  0.4854874    0.00000       Uiso       1.00
      C329          C  0.0775109  0.1130568  0.4956066    0.00000       Uiso       1.00
      C330          C  0.0507319  0.0836197  0.4642654    0.00000       Uiso       1.00
      C331          C  0.0557049  0.0733674  0.4742571    0.00000       Uiso       1.00
      C332          C  0.0690014  0.0878112  0.4904036    0.00000       Uiso       1.00
      H159          H  0.0458421  0.1047047  0.5356543    0.00000       Uiso       1.00
      H160          H  0.0297494  0.0481603  0.5110793    0.00000       Uiso       1.00
      C333          C  0.1566213  0.1074689  0.4684866    0.00000       Uiso       1.00
      C334          C  0.1421928  0.0917233  0.4537422    0.00000       Uiso       1.00
      C335          C  0.1170926  0.0816040  0.4641584    0.00000       Uiso       1.00
      C336          C  0.1457756  0.1129670  0.4935947    0.00000       Uiso       1.00
      C337          C  0.1205589  0.1029751  0.5038483    0.00000       Uiso       1.00
      C338          C  0.1055604  0.0868153  0.4894042    0.00000       Uiso       1.00
      H161          H  0.1003677  0.0415637  0.4724980    0.00000       Uiso       1.00
      H162          H  0.0844771  0.0661201  0.5290465    0.00000       Uiso       1.00
      C339          C  0.0456677  0.9977638  0.4823329    0.00000       Uiso       1.00
      C340          C  0.0707760  0.0086126  0.4735658    0.00000       Uiso       1.00
      C341          C  0.0810273  0.0338314  0.4785394    0.00000       Uiso       1.00
      C342          C  0.0309224  0.0121915  0.4957639    0.00000       Uiso       1.00
      C343          C  0.0413356  0.0372927  0.5003292    0.00000       Uiso       1.00
      C344          C  0.0665811  0.0488284  0.4918270    0.00000       Uiso       1.00
      H163          H  0.1062186  0.0699017  0.4525775    0.00000       Uiso       1.00
      H164          H  0.0496619  0.0540262  0.4686869    0.00000       Uiso       1.00
      C345          C  0.1603915  0.1287714  0.5081016    0.00000       Uiso       1.00
      C346          C  0.1853429  0.1389772  0.4978748    0.00000       Uiso       1.00
      C347          C  0.1531342  0.0866538  0.4287525    0.00000       Uiso       1.00
      C348          C  0.1780230  0.0971189  0.4185387    0.00000       Uiso       1.00
      C349          C  0.0256222  0.1169586  0.5832121    0.00000       Uiso       1.00
      C350          C  0.0154146  0.1214791  0.6081640    0.00000       Uiso       1.00
      C351          C  0.0677387  0.0724710  0.5759581    0.00000       Uiso       1.00
      C352          C  0.0572750  0.0766869  0.6008497    0.00000       Uiso       1.00
      C353          C  0.0059322  0.0012474  0.5047431    0.00000       Uiso       1.00
      C354          C  0.9957235  0.9763563  0.5005296    0.00000       Uiso       1.00
      C355          C  0.0819302  0.1484623  0.4905496    0.00000       Uiso       1.00
      C356          C  0.0777146  0.1586734  0.4800853    0.00000       Uiso       1.00
      H165          H  0.0923965  0.1601697  0.5025252    0.00000       Uiso       1.00
      H166          H  0.0849926  0.1779814  0.4842832    0.00000       Uiso       1.00
      H167          H  0.1858537  0.0929147  0.3992303    0.00000       Uiso       1.00
      H168          H  0.1424006  0.0746705  0.4170451    0.00000       Uiso       1.00
      H169          H  0.1524923  0.1332729  0.5274459    0.00000       Uiso       1.00
      H170          H  0.1960526  0.1510514  0.5095860    0.00000       Uiso       1.00
      H171          H  0.0614790  0.0694187  0.6086859    0.00000       Uiso       1.00
      H172          H  0.0797221  0.0620131  0.5652270    0.00000       Uiso       1.00
      H173          H  0.0211203  0.1239010  0.5753143    0.00000       Uiso       1.00
      H174          H  0.0033396  0.1318257  0.6188782    0.00000       Uiso       1.00
      H175          H  0.9764169  0.9685228  0.5078014    0.00000       Uiso       1.00
      H176          H  0.9942248  0.0119804  0.5151994    0.00000       Uiso       1.00
      C357          C  0.9819216  0.5952803  0.7329978    0.00000       Uiso       1.00
      C358          C  0.0049406  0.6075938  0.7205267    0.00000       Uiso       1.00
      C359          C  0.0155143  0.5970176  0.6955208    0.00000       Uiso       1.00
      C360          C  0.9696093  0.5722601  0.7205265    0.00000       Uiso       1.00
      C361          C  0.9801579  0.5615853  0.6956012    0.00000       Uiso       1.00
      C362          C  0.0033319  0.5737505  0.6824441    0.00000       Uiso       1.00
      H177          H  0.2639395  0.5361530  0.4564070    0.00000       Uiso       1.00
      H178          H  0.0422158  0.3136284  0.4559027    0.00000       Uiso       1.00
      H179          H  0.9508436  0.5619364  0.7304280    0.00000       Uiso       1.00
      C363          C  0.3102041  0.5424853  0.4047143    0.00000       Uiso       1.00
      C364          C  0.2977332  0.5407205  0.4277337    0.00000       Uiso       1.00
      C365          C  0.2728078  0.5370181  0.4384094    0.00000       Uiso       1.00
      C366          C  0.2977323  0.5407214  0.3924026    0.00000       Uiso       1.00
      C367          C  0.2727261  0.5368649  0.4029796    0.00000       Uiso       1.00
      C368          C  0.2596509  0.5348710  0.4262454    0.00000       Uiso       1.00
      H180          H  0.0331142  0.6073200  0.6863642    0.00000       Uiso       1.00
      H181          H  0.0336085  0.6070447  0.4638575    0.00000       Uiso       1.00
      H182          H  0.3076337  0.5421808  0.3736372    0.00000       Uiso       1.00
      C369          C  0.0347301  0.2669977  0.4047128    0.00000       Uiso       1.00
      C370          C  0.0364934  0.2794697  0.3924012    0.00000       Uiso       1.00
      C371          C  0.0401977  0.3043958  0.4029482    0.00000       Uiso       1.00
      C372          C  0.0364943  0.2794689  0.4277322    0.00000       Uiso       1.00
      C373          C  0.0403536  0.3044758  0.4383047    0.00000       Uiso       1.00
      C374          C  0.0423482  0.3175532  0.4261208    0.00000       Uiso       1.00
      H183          H  0.9698778  0.5440927  0.4650087    0.00000       Uiso       1.00
      H184          H  0.9701651  0.5435867  0.6867324    0.00000       Uiso       1.00
      H185          H  0.0350360  0.2695666  0.4380544    0.00000       Uiso       1.00
      C375          C  0.9819148  0.5952870  0.4575306    0.00000       Uiso       1.00
      C376          C  0.9696029  0.5722665  0.4592941    0.00000       Uiso       1.00
      C377          C  0.9801803  0.5616922  0.4631485    0.00000       Uiso       1.00
      C378          C  0.0049341  0.6076002  0.4592943    0.00000       Uiso       1.00
      C379          C  0.0156104  0.5970510  0.4629940    0.00000       Uiso       1.00
      C380          C  0.0034466  0.5738753  0.4651398    0.00000       Uiso       1.00
      H186          H  0.0410651  0.3132668  0.3929546    0.00000       Uiso       1.00
      H187          H  0.2635704  0.5350057  0.3926765    0.00000       Uiso       1.00
      C381          C  0.0771953  0.5000127  0.4999882    0.00000       Uiso       1.00
      H188          H  0.0152566  0.6263666  0.4578359    0.00000       Uiso       1.00
       F17          F  0.0184327  0.6321215  0.7334684    0.00000       Uiso       1.00
       F18          F  0.9450755  0.5587736  0.4573877    0.00000       Uiso       1.00
       F19          F  0.3106754  0.5426271  0.4412251    0.00000       Uiso       1.00
       F20          F  0.0345865  0.2665283  0.3678744    0.00000       Uiso       1.00
      C382          C  0.0145052  0.5623233  0.6554371    0.00000       Uiso       1.00
      C383          C  0.0396671  0.5671471  0.6442485    0.00000       Uiso       1.00
      C384          C  0.0500766  0.5566653  0.6191493    0.00000       Uiso       1.00
      C385          C  0.0000685  0.5464360  0.6405162    0.00000       Uiso       1.00
      C386          C  0.0102362  0.5356785  0.6154528    0.00000       Uiso       1.00
      C387          C  0.0353227  0.5408295  0.6047007    0.00000       Uiso       1.00
      H189          H  0.9808456  0.5426731  0.6482766    0.00000       Uiso       1.00
      H190          H  0.0512446  0.5788516  0.6550937    0.00000       Uiso       1.00
      C388          C  0.2326452  0.5304633  0.4376737    0.00000       Uiso       1.00
      C389          C  0.2177244  0.5169827  0.4535518    0.00000       Uiso       1.00
      C390          C  0.1926611  0.5128444  0.4643112    0.00000       Uiso       1.00
      C391          C  0.2214574  0.5396237  0.4328621    0.00000       Uiso       1.00
      C392          C  0.1963594  0.5354158  0.4433458    0.00000       Uiso       1.00
      C393          C  0.1819105  0.5220387  0.4591710    0.00000       Uiso       1.00
      H191          H  0.2322981  0.5503517  0.4211675    0.00000       Uiso       1.00
      H192          H  0.2254852  0.5092741  0.4573063    0.00000       Uiso       1.00
      C394          C  0.0467579  0.3445606  0.4372899    0.00000       Uiso       1.00
      C395          C  0.0602286  0.3594804  0.4228504    0.00000       Uiso       1.00
      C396          C  0.0643665  0.3845470  0.4330173    0.00000       Uiso       1.00
      C397          C  0.0376073  0.3557490  0.4624502    0.00000       Uiso       1.00
      C398          C  0.0418154  0.3808472  0.4728574    0.00000       Uiso       1.00
      C399          C  0.0551811  0.3952984  0.4581060    0.00000       Uiso       1.00
      H193          H  0.0268876  0.3449099  0.4740319    0.00000       Uiso       1.00
      H194          H  0.0679283  0.3517122  0.4036241    0.00000       Uiso       1.00
      C400          C  0.0148750  0.5627023  0.4695452    0.00000       Uiso       1.00
      C401          C  0.0100602  0.5375412  0.4603868    0.00000       Uiso       1.00
      C402          C  0.0205411  0.5271314  0.4645956    0.00000       Uiso       1.00
      C403          C  0.0307554  0.5771385  0.4830222    0.00000       Uiso       1.00
      C404          C  0.0415146  0.5669707  0.4871587    0.00000       Uiso       1.00
      C405          C  0.0363699  0.5418850  0.4779691    0.00000       Uiso       1.00
      H195          H  0.0345119  0.5963617  0.4907274    0.00000       Uiso       1.00
      H196          H  0.9983647  0.5259675  0.4496601    0.00000       Uiso       1.00
      C406          C  0.0154365  0.5021343  0.4557053    0.00000       Uiso       1.00
      C407          C  0.0256416  0.4919097  0.4602277    0.00000       Uiso       1.00
      C408          C  0.1853580  0.5443130  0.4382473    0.00000       Uiso       1.00
      C409          C  0.1604069  0.5397925  0.4484544    0.00000       Uiso       1.00
      H197          H  0.1960664  0.5546693  0.4261819    0.00000       Uiso       1.00
      H198          H  0.1525088  0.5467446  0.4439620    0.00000       Uiso       1.00
      H199          H  0.0033699  0.4904258  0.4453517    0.00000       Uiso       1.00
      H200          H  0.0211479  0.4725674  0.4532812    0.00000       Uiso       1.00
      C410          C  0.0456818  0.5302678  0.5794280    0.00000       Uiso       1.00
      C411          C  0.0707880  0.5357651  0.5685810    0.00000       Uiso       1.00
      C412          C  0.0810398  0.5257723  0.5433653    0.00000       Uiso       1.00
      C413          C  0.0309372  0.5145252  0.5650007    0.00000       Uiso       1.00
      C414          C  0.0413513  0.5044077  0.5399013    0.00000       Uiso       1.00
      C415          C  0.0665958  0.5096153  0.5283679    0.00000       Uiso       1.00
      H201          H  0.1062375  0.4889116  0.5072737    0.00000       Uiso       1.00
      H202          H  0.0497067  0.4643590  0.5231712    0.00000       Uiso       1.00
      C416          C  0.1566384  0.5176883  0.4697338    0.00000       Uiso       1.00
      C417          C  0.1422094  0.5042492  0.4854686    0.00000       Uiso       1.00
      C418          C  0.1171088  0.4996818  0.4955886    0.00000       Uiso       1.00
      C419          C  0.1457916  0.5264622  0.4642477    0.00000       Uiso       1.00
      C420          C  0.1205748  0.5214888  0.4742403    0.00000       Uiso       1.00
      C421          C  0.1055758  0.5081916  0.4903865    0.00000       Uiso       1.00
      H203          H  0.1003796  0.5313506  0.5356371    0.00000       Uiso       1.00
      H204          H  0.0845027  0.5474443  0.5110641    0.00000       Uiso       1.00
      C422          C  0.0595281  0.4205698  0.4684696    0.00000       Uiso       1.00
      C423          C  0.0729552  0.4349990  0.4537254    0.00000       Uiso       1.00
      C424          C  0.0775208  0.4600996  0.4641418    0.00000       Uiso       1.00
      C425          C  0.0507647  0.4314152  0.4935777    0.00000       Uiso       1.00
      C426          C  0.0557368  0.4566324  0.5038316    0.00000       Uiso       1.00
      C427          C  0.0690194  0.4716316  0.4893878    0.00000       Uiso       1.00
      H205          H  0.0458664  0.4768248  0.4724834    0.00000       Uiso       1.00
      H206          H  0.0297668  0.4927147  0.5290316    0.00000       Uiso       1.00
      C428          C  0.0469326  0.5315256  0.4823198    0.00000       Uiso       1.00
      C429          C  0.0414400  0.5064174  0.4735524    0.00000       Uiso       1.00
      C430          C  0.0514337  0.4961657  0.4785250    0.00000       Uiso       1.00
      C431          C  0.0626757  0.5462716  0.4957502    0.00000       Uiso       1.00
      C432          C  0.0727983  0.5358580  0.5003145    0.00000       Uiso       1.00
      C433          C  0.0675900  0.5106120  0.4918119    0.00000       Uiso       1.00
      H207          H  0.0882732  0.4709742  0.4525611    0.00000       Uiso       1.00
      H208          H  0.1128467  0.5275321  0.4686708    0.00000       Uiso       1.00
      C434          C  0.0374464  0.4167986  0.5080844    0.00000       Uiso       1.00
      C435          C  0.0329268  0.3918467  0.4978572    0.00000       Uiso       1.00
      C436          C  0.0819332  0.4240578  0.4287355    0.00000       Uiso       1.00
      C437          C  0.0777224  0.3991686  0.4185214    0.00000       Uiso       1.00
      C438          C  0.0852973  0.5515701  0.5831950    0.00000       Uiso       1.00
      C439          C  0.0750744  0.5617774  0.6081470    0.00000       Uiso       1.00
      C440          C  0.0059461  0.5094525  0.5759437    0.00000       Uiso       1.00
      C441          C  0.9957356  0.5199160  0.6008355    0.00000       Uiso       1.00
      C442          C  0.0677434  0.5712624  0.5047297    0.00000       Uiso       1.00
      C443          C  0.0572748  0.5814714  0.5005172    0.00000       Uiso       1.00
      C444          C  0.1531518  0.4952625  0.4905297    0.00000       Uiso       1.00
      C445          C  0.1780426  0.4994784  0.4800647    0.00000       Uiso       1.00
      H209          H  0.1424174  0.4847956  0.5025052    0.00000       Uiso       1.00
      H210          H  0.1858747  0.4922001  0.4842618    0.00000       Uiso       1.00
      H211          H  0.0849952  0.3913381  0.3992129    0.00000       Uiso       1.00
      H212          H  0.0923908  0.4347920  0.4170282    0.00000       Uiso       1.00
      H213          H  0.0305036  0.4246977  0.5274287    0.00000       Uiso       1.00
      H214          H  0.0225801  0.3811365  0.5095683    0.00000       Uiso       1.00
      H215          H  0.9764274  0.5157118  0.6086723    0.00000       Uiso       1.00
      H216          H  0.9942360  0.4974691  0.5652131    0.00000       Uiso       1.00
      H217          H  0.1046393  0.5560722  0.5752966    0.00000       Uiso       1.00
      H218          H  0.0867824  0.5738525  0.6188608    0.00000       Uiso       1.00
      H219          H  0.0614768  0.6007785  0.5077892    0.00000       Uiso       1.00
      H220          H  0.0797287  0.5829704  0.5151855    0.00000       Uiso       1.00
      C446          C  0.9819167  0.1196592  0.9819025    0.00000       Uiso       1.00
      C447          C  0.0049360  0.1178960  0.9695900    0.00000       Uiso       1.00
      C448          C  0.0155105  0.1140405  0.9801661    0.00000       Uiso       1.00
      C449          C  0.9696048  0.1178938  0.0049211    0.00000       Uiso       1.00
      C450          C  0.9801542  0.1141924  0.0155959    0.00000       Uiso       1.00
      C451          C  0.0033286  0.1120467  0.0034316    0.00000       Uiso       1.00
      H221          H  0.2639403  0.1842319  0.0410346    0.00000       Uiso       1.00
      H222          H  0.0422172  0.1845085  0.2635477    0.00000       Uiso       1.00
      H223          H  0.9508390  0.1193519  0.0152441    0.00000       Uiso       1.00
      C452          C  0.3102064  0.1724748  0.0347036    0.00000       Uiso       1.00
      C453          C  0.2977346  0.1847871  0.0364681    0.00000       Uiso       1.00
      C454          C  0.2728092  0.1742381  0.0401698    0.00000       Uiso       1.00
      C455          C  0.2977354  0.1494542  0.0364671    0.00000       Uiso       1.00
      C456          C  0.2727292  0.1388796  0.0403229    0.00000       Uiso       1.00
      C457          C  0.2596531  0.1510632  0.0423164    0.00000       Uiso       1.00
      H224          H  0.0331106  0.1121829  0.9698644    0.00000       Uiso       1.00
      H225          H  0.0336148  0.8904451  0.9701390    0.00000       Uiso       1.00
      H226          H  0.3076375  0.1391314  0.0350079    0.00000       Uiso       1.00
      C458          C  0.0347331  0.1724619  0.3101768    0.00000       Uiso       1.00
      C459          C  0.0364973  0.1494420  0.2977051    0.00000       Uiso       1.00
      C460          C  0.0402014  0.1387680  0.2727798    0.00000       Uiso       1.00
      C461          C  0.0364965  0.1847749  0.2977061    0.00000       Uiso       1.00
      C462          C  0.0403556  0.1742004  0.2726999    0.00000       Uiso       1.00
      C463          C  0.0423510  0.1509342  0.2596229    0.00000       Uiso       1.00
      H227          H  0.9698843  0.8908105  0.0330869    0.00000       Uiso       1.00
      H228          H  0.9701617  0.1133284  0.0335937    0.00000       Uiso       1.00
      H229          H  0.0350375  0.2035408  0.3076081    0.00000       Uiso       1.00
      C464          C  0.9819223  0.8441774  0.9818948    0.00000       Uiso       1.00
      C465          C  0.9696102  0.8566477  0.0049139    0.00000       Uiso       1.00
      C466          C  0.9801869  0.8816543  0.0154881    0.00000       Uiso       1.00
      C467          C  0.0049413  0.8566499  0.9695827    0.00000       Uiso       1.00
      C468          C  0.0156170  0.8815757  0.9801319    0.00000       Uiso       1.00
      C469          C  0.0034529  0.8947315  0.0033060    0.00000       Uiso       1.00
      H230          H  0.0410694  0.1207710  0.2639090    0.00000       Uiso       1.00
      H231          H  0.2635741  0.1212792  0.0421817    0.00000       Uiso       1.00
      C470          C  0.0771975  0.0771953  0.0771690    0.00000       Uiso       1.00
      H232          H  0.0152640  0.8467487  0.9508170    0.00000       Uiso       1.00
       F21          F  0.0184277  0.1198035  0.9450633    0.00000       Uiso       1.00
       F22          F  0.9450832  0.8437048  0.0184057    0.00000       Uiso       1.00
       F23          F  0.3106760  0.2093152  0.0345620    0.00000       Uiso       1.00
       F24          F  0.0345912  0.1359492  0.3106461    0.00000       Uiso       1.00
      C471          C  0.0145026  0.1076406  0.0148587    0.00000       Uiso       1.00
      C472          C  0.0396646  0.1167920  0.0100357    0.00000       Uiso       1.00
      C473          C  0.0500749  0.1125845  0.0205175    0.00000       Uiso       1.00
      C474          C  0.0000666  0.0941690  0.0307452    0.00000       Uiso       1.00
      C475          C  0.0102351  0.0900312  0.0415026    0.00000       Uiso       1.00
      C476          C  0.0353216  0.0992165  0.0363524    0.00000       Uiso       1.00
      H233          H  0.9808438  0.0864674  0.0345075    0.00000       Uiso       1.00
      H234          H  0.0512415  0.1275118  0.9983325    0.00000       Uiso       1.00
      C477          C  0.2326474  0.1398915  0.0467232    0.00000       Uiso       1.00
      C478          C  0.2177260  0.1543282  0.0602032    0.00000       Uiso       1.00
      C479          C  0.1926626  0.1441607  0.0643407    0.00000       Uiso       1.00
      C480          C  0.2214603  0.1147311  0.0375628    0.00000       Uiso       1.00
      C481          C  0.1963622  0.1043229  0.0417700    0.00000       Uiso       1.00
      C482          C  0.1819126  0.1190750  0.0551463    0.00000       Uiso       1.00
      H235          H  0.2323015  0.1031502  0.0268353    0.00000       Uiso       1.00
      H236          H  0.2254862  0.1735525  0.0679119    0.00000       Uiso       1.00
      C483          C  0.0467606  0.1395064  0.2326163    0.00000       Uiso       1.00
      C484          C  0.0602320  0.1236190  0.2176971    0.00000       Uiso       1.00
      C485          C  0.0643698  0.1128580  0.1926313    0.00000       Uiso       1.00
      C486          C  0.0376092  0.1443273  0.2214279    0.00000       Uiso       1.00
      C487          C  0.0418173  0.1338453  0.1963305    0.00000       Uiso       1.00
      C488          C  0.0551836  0.1180096  0.1818800    0.00000       Uiso       1.00
      H237          H  0.0268891  0.1560275  0.2322665    0.00000       Uiso       1.00
      H238          H  0.0679323  0.1198610  0.2254653    0.00000       Uiso       1.00
      C489          C  0.0148806  0.9217389  0.0144791    0.00000       Uiso       1.00
      C490          C  0.0100659  0.9329259  0.0396394    0.00000       Uiso       1.00
      C491          C  0.0205461  0.9580261  0.0500492    0.00000       Uiso       1.00
      C492          C  0.0307603  0.9366615  0.0000437    0.00000       Uiso       1.00
      C493          C  0.0415189  0.9617257  0.0102116    0.00000       Uiso       1.00
      C494          C  0.0363742  0.9724762  0.0352965    0.00000       Uiso       1.00
      H239          H  0.0345168  0.9289013  0.9808218    0.00000       Uiso       1.00
      H240          H  0.9983709  0.9220757  0.0512125    0.00000       Uiso       1.00
      C495          C  0.0154416  0.9690274  0.0750456    0.00000       Uiso       1.00
      C496          C  0.0256460  0.9939800  0.0852702    0.00000       Uiso       1.00
      C497          C  0.1853615  0.0793250  0.0328726    0.00000       Uiso       1.00
      C498          C  0.1604104  0.0690998  0.0373923    0.00000       Uiso       1.00
      H241          H  0.1960704  0.0676128  0.0225168    0.00000       Uiso       1.00
      H242          H  0.1525128  0.0497567  0.0304401    0.00000       Uiso       1.00
      H243          H  0.0033755  0.9583145  0.0867535    0.00000       Uiso       1.00
      H244          H  0.0211530  0.0018815  0.1046119    0.00000       Uiso       1.00
      C499          C  0.0456815  0.0948650  0.0469140    0.00000       Uiso       1.00
      C500          C  0.0707878  0.1036288  0.0414176    0.00000       Uiso       1.00
      C501          C  0.0810403  0.0986582  0.0514103    0.00000       Uiso       1.00
      C502          C  0.0309376  0.0814343  0.0626558    0.00000       Uiso       1.00
      C503          C  0.0413524  0.0768670  0.0727733    0.00000       Uiso       1.00
      C504          C  0.0665970  0.0853724  0.0675665    0.00000       Uiso       1.00
      H245          H  0.1062384  0.1246259  0.0882707    0.00000       Uiso       1.00
      H246          H  0.0497076  0.1085408  0.1128211    0.00000       Uiso       1.00
      C505          C  0.1566405  0.1087142  0.0594959    0.00000       Uiso       1.00
      C506          C  0.1422109  0.1234579  0.0729344    0.00000       Uiso       1.00
      C507          C  0.1171102  0.1130429  0.0775010    0.00000       Uiso       1.00
      C508          C  0.1457945  0.0836069  0.0507219    0.00000       Uiso       1.00
      C509          C  0.1205776  0.0733541  0.0556945    0.00000       Uiso       1.00
      C510          C  0.1055779  0.0877973  0.0689911    0.00000       Uiso       1.00
      H247          H  0.1003801  0.1046928  0.0458327    0.00000       Uiso       1.00
      H248          H  0.0845051  0.0481483  0.0297388    0.00000       Uiso       1.00
      C511          C  0.0595305  0.1074495  0.1566094    0.00000       Uiso       1.00
      C512          C  0.0729584  0.0917044  0.1421808    0.00000       Uiso       1.00
      C513          C  0.0775238  0.0815866  0.1170810    0.00000       Uiso       1.00
      C514          C  0.0507663  0.1129484  0.1457641    0.00000       Uiso       1.00
      C515          C  0.0557384  0.1029581  0.1205477    0.00000       Uiso       1.00
      C516          C  0.0690216  0.0867989  0.1055491    0.00000       Uiso       1.00
      H249          H  0.0458701  0.0415466  0.1003553    0.00000       Uiso       1.00
      H250          H  0.0297685  0.0661048  0.0844656    0.00000       Uiso       1.00
      C517          C  0.0469363  0.9977496  0.0456559    0.00000       Uiso       1.00
      C518          C  0.0414443  0.0085969  0.0707634    0.00000       Uiso       1.00
      C519          C  0.0514373  0.0338155  0.0810151    0.00000       Uiso       1.00
      C520          C  0.0626793  0.0121786  0.0309109    0.00000       Uiso       1.00
      C521          C  0.0728012  0.0372796  0.0413244    0.00000       Uiso       1.00
      C522          C  0.0675929  0.0488138  0.0665696    0.00000       Uiso       1.00
      H251          H  0.0882768  0.0698848  0.1062069    0.00000       Uiso       1.00
      H252          H  0.1128501  0.0540129  0.0496511    0.00000       Uiso       1.00
      C523          C  0.0374474  0.1287523  0.1603800    0.00000       Uiso       1.00
      C524          C  0.0329278  0.1389566  0.1853311    0.00000       Uiso       1.00
      C525          C  0.0819371  0.0866340  0.1531219    0.00000       Uiso       1.00
      C526          C  0.0777264  0.0970977  0.1780104    0.00000       Uiso       1.00
      C527          C  0.0852963  0.1169485  0.0256134    0.00000       Uiso       1.00
      C528          C  0.0750727  0.1214699  0.0154062    0.00000       Uiso       1.00
      C529          C  0.0059464  0.0724571  0.0677277    0.00000       Uiso       1.00
      C530          C  0.9957352  0.0766739  0.0572643    0.00000       Uiso       1.00
      C531          C  0.0677469  0.0012359  0.0059209    0.00000       Uiso       1.00
      C532          C  0.0572783  0.9763455  0.9957123    0.00000       Uiso       1.00
      C533          C  0.1531526  0.1484488  0.0819212    0.00000       Uiso       1.00
      C534          C  0.1780434  0.1586604  0.0777061    0.00000       Uiso       1.00
      H253          H  0.1424176  0.1601558  0.0923876    0.00000       Uiso       1.00
      H254          H  0.1858750  0.1779684  0.0849844    0.00000       Uiso       1.00
      H255          H  0.0849998  0.0928927  0.1858408    0.00000       Uiso       1.00
      H256          H  0.0923952  0.0746511  0.1423883    0.00000       Uiso       1.00
      H257          H  0.0305040  0.1332544  0.1524810    0.00000       Uiso       1.00
      H258          H  0.0225807  0.1510303  0.1960408    0.00000       Uiso       1.00
      H259          H  0.9764271  0.0694052  0.0614679    0.00000       Uiso       1.00
      H260          H  0.9942369  0.0619981  0.0797105    0.00000       Uiso       1.00
      H261          H  0.1046384  0.1238914  0.0211119    0.00000       Uiso       1.00
      H262          H  0.0867801  0.1318176  0.0033317    0.00000       Uiso       1.00
      H263          H  0.0614803  0.9685132  0.9764059    0.00000       Uiso       1.00
      H264          H  0.0797317  0.0119706  0.9942141    0.00000       Uiso       1.00
      C535          C  0.4531472  0.6344922  0.7960387    0.00000       Uiso       1.00
      C536          C  0.4519153  0.6549345  0.8166313    0.00000       Uiso       1.00
      C537          C  0.4495206  0.6745552  0.8172864    0.00000       Uiso       1.00
      C538          C  0.4495313  0.6953455  0.8376388    0.00000       Uiso       1.00
      C539          C  0.4533018  0.6975259  0.8573237    0.00000       Uiso       1.00
      C540          C  0.4560426  0.6776613  0.8561255    0.00000       Uiso       1.00
      C541          C  0.4536857  0.6557355  0.8368843    0.00000       Uiso       1.00
        O1          O  0.4526303  0.6312124  0.7744461    0.00000       Uiso       1.00
      H265          H  0.4476172  0.6736813  0.8019162    0.00000       Uiso       1.00
      H266          H  0.4468235  0.7096546  0.8375514    0.00000       Uiso       1.00
      H267          H  0.4615647  0.6797226  0.8695042    0.00000       Uiso       1.00
      C542          C  0.4530880  0.6146733  0.9427047    0.00000       Uiso       1.00
      C543          C  0.4518413  0.6135893  0.9222682    0.00000       Uiso       1.00
      C544          C  0.4494588  0.5922342  0.9026403    0.00000       Uiso       1.00
      C545          C  0.4494761  0.5918137  0.8818498    0.00000       Uiso       1.00
      C546          C  0.4532469  0.6130910  0.8796729    0.00000       Uiso       1.00
      C547          C  0.4559636  0.6344903  0.8995514    0.00000       Uiso       1.00
      C548          C  0.4535974  0.6348094  0.9214770    0.00000       Uiso       1.00
        O2          O  0.4526047  0.5958496  0.9459671    0.00000       Uiso       1.00
      H268          H  0.4475719  0.5758354  0.9035011    0.00000       Uiso       1.00
      H269          H  0.4467805  0.5747122  0.8675358    0.00000       Uiso       1.00
      H270          H  0.4614833  0.6513347  0.8975043    0.00000       Uiso       1.00
      C549          C  0.4531066  0.7811153  0.9624851    0.00000       Uiso       1.00
      C550          C  0.4518423  0.7605124  0.9635739    0.00000       Uiso       1.00
      C551          C  0.4494270  0.7598531  0.9849397    0.00000       Uiso       1.00
      C552          C  0.4494153  0.7394924  0.9853756    0.00000       Uiso       1.00
      C553          C  0.4531831  0.7198040  0.9641027    0.00000       Uiso       1.00
      C554          C  0.4559316  0.7210026  0.9426907    0.00000       Uiso       1.00
      C555          C  0.4536051  0.7402576  0.9423544    0.00000       Uiso       1.00
        O3          O  0.4525944  0.8027070  0.9813158    0.00000       Uiso       1.00
      H271          H  0.4475370  0.7752337  0.0013319    0.00000       Uiso       1.00
      H272          H  0.4467025  0.7395798  0.0024817    0.00000       Uiso       1.00
      H273          H  0.4614447  0.7076184  0.9258527    0.00000       Uiso       1.00
      C556          C  0.4562211  0.7820945  0.9414513    0.00000       Uiso       1.00
      C557          C  0.4567918  0.7620681  0.9204023    0.00000       Uiso       1.00
      C558          C  0.4593994  0.7629782  0.8990794    0.00000       Uiso       1.00
      C559          C  0.4590146  0.7424713  0.8784460    0.00000       Uiso       1.00
      C560          C  0.4546236  0.7201792  0.8790487    0.00000       Uiso       1.00
      C561          C  0.4514989  0.7195558  0.9008941    0.00000       Uiso       1.00
      C562          C  0.4542945  0.7404686  0.9210716    0.00000       Uiso       1.00
        O4          O  0.4579966  0.8044017  0.9439721    0.00000       Uiso       1.00
      H274          H  0.4618315  0.7797176  0.8984584    0.00000       Uiso       1.00
      H275          H  0.4619918  0.7443483  0.8622189    0.00000       Uiso       1.00
      H276          H  0.4454657  0.7024798  0.9027269    0.00000       Uiso       1.00
      C563          C  0.4561619  0.6356999  0.9616214    0.00000       Uiso       1.00
      C564          C  0.4567099  0.6567421  0.9620804    0.00000       Uiso       1.00
      C565          C  0.4592663  0.6780550  0.9817260    0.00000       Uiso       1.00
      C566          C  0.4588652  0.6986804  0.9822387    0.00000       Uiso       1.00
      C567          C  0.4545135  0.6980833  0.9637117    0.00000       Uiso       1.00
      C568          C  0.4514365  0.6762460  0.9443498    0.00000       Uiso       1.00
      C569          C  0.4542445  0.6560784  0.9422944    0.00000       Uiso       1.00
        O5          O  0.4579311  0.6331785  0.9796346    0.00000       Uiso       1.00
      H277          H  0.4616821  0.6786778  0.9966659    0.00000       Uiso       1.00
      H278          H  0.4618068  0.7148988  0.9973837    0.00000       Uiso       1.00
      H279          H  0.4454202  0.6744013  0.9314556    0.00000       Uiso       1.00
      C570          C  0.4562239  0.6155770  0.7950768    0.00000       Uiso       1.00
      C571          C  0.4567887  0.6151285  0.8151068    0.00000       Uiso       1.00
      C572          C  0.4593386  0.5954794  0.8142162    0.00000       Uiso       1.00
      C573          C  0.4589350  0.5949617  0.8347281    0.00000       Uiso       1.00
      C574          C  0.4545964  0.6134955  0.8570097    0.00000       Uiso       1.00
      C575          C  0.4515361  0.6328693  0.8576106    0.00000       Uiso       1.00
      C576          C  0.4543374  0.6349210  0.8366904    0.00000       Uiso       1.00
        O6          O  0.4579660  0.5975486  0.7727835    0.00000       Uiso       1.00
      H280          H  0.4617444  0.5805374  0.7974822    0.00000       Uiso       1.00
      H281          H  0.4618614  0.5798060  0.8328573    0.00000       Uiso       1.00
      H282          H  0.4455322  0.6457725  0.8746772    0.00000       Uiso       1.00
        B1          B  0.4556963  0.6076857  0.7598178    0.00000       Uiso       1.00
        B2          B  0.4556833  0.6078112  0.9694869    0.00000       Uiso       1.00
        B3          B  0.4557012  0.8173551  0.9693502    0.00000       Uiso       1.00
      C577          C  0.7960438  0.6146963  0.4531419    0.00000       Uiso       1.00
      C578          C  0.8166367  0.6136150  0.4519096    0.00000       Uiso       1.00
      C579          C  0.8172917  0.5922547  0.4495147    0.00000       Uiso       1.00
      C580          C  0.8376445  0.5918279  0.4495250    0.00000       Uiso       1.00
      C581          C  0.8573300  0.6131033  0.4532950    0.00000       Uiso       1.00
      C582          C  0.8561320  0.6345108  0.4560359    0.00000       Uiso       1.00
      C583          C  0.8368903  0.6348381  0.4536796    0.00000       Uiso       1.00
        O7          O  0.7744508  0.5958662  0.4526255    0.00000       Uiso       1.00
      H283          H  0.8019212  0.5758545  0.4476117    0.00000       Uiso       1.00
      H284          H  0.8375569  0.5747233  0.4468171    0.00000       Uiso       1.00
      H285          H  0.8695111  0.6513507  0.4615576    0.00000       Uiso       1.00
      C584          C  0.9427134  0.7811257  0.4530801    0.00000       Uiso       1.00
      C585          C  0.9222765  0.7605259  0.4518338    0.00000       Uiso       1.00
      C586          C  0.9026482  0.7598704  0.4494519    0.00000       Uiso       1.00
      C587          C  0.8818572  0.7395172  0.4494696    0.00000       Uiso       1.00
      C588          C  0.8796803  0.7198337  0.4532402    0.00000       Uiso       1.00
      C589          C  0.8995591  0.7210300  0.4559564    0.00000       Uiso       1.00
      C590          C  0.9214851  0.7402707  0.4535898    0.00000       Uiso       1.00
        O8          O  0.9459761  0.8027286  0.4525968    0.00000       Uiso       1.00
      H286          H  0.9035091  0.7752432  0.4475651    0.00000       Uiso       1.00
      H287          H  0.8675429  0.7396088  0.4467744    0.00000       Uiso       1.00
      H288          H  0.8975120  0.7076580  0.4614758    0.00000       Uiso       1.00
      C591          C  0.9624935  0.6344823  0.4530973    0.00000       Uiso       1.00
      C592          C  0.9635825  0.6549098  0.4518331    0.00000       Uiso       1.00
      C593          C  0.9849486  0.6745201  0.4494175    0.00000       Uiso       1.00
      C594          C  0.9853847  0.6953052  0.4494059    0.00000       Uiso       1.00
      C595          C  0.9641114  0.6974882  0.4531742    0.00000       Uiso       1.00
      C596          C  0.9426990  0.6776255  0.4559230    0.00000       Uiso       1.00
      C597          C  0.9423625  0.6557075  0.4535964    0.00000       Uiso       1.00
        O9          O  0.9813244  0.6312094  0.4525847    0.00000       Uiso       1.00
      H289          H  0.0013410  0.6736421  0.4475272    0.00000       Uiso       1.00
      H290          H  0.0024911  0.7096115  0.4466928    0.00000       Uiso       1.00
      H291          H  0.9258608  0.6796847  0.4614365    0.00000       Uiso       1.00
      C598          C  0.9414592  0.6155834  0.4562123    0.00000       Uiso       1.00
      C599          C  0.9204099  0.6151311  0.4567834    0.00000       Uiso       1.00
      C600          C  0.8990865  0.5955052  0.4593913    0.00000       Uiso       1.00
      C601          C  0.8784526  0.5949935  0.4590070    0.00000       Uiso       1.00
      C602          C  0.8790554  0.6134974  0.4546163    0.00000       Uiso       1.00
      C603          C  0.9009013  0.6328419  0.4514911    0.00000       Uiso       1.00
      C604          C  0.9210792  0.6349027  0.4542862    0.00000       Uiso       1.00
       O10          O  0.9439800  0.5975724  0.4579874    0.00000       Uiso       1.00
      H292          H  0.8984655  0.5805768  0.4618232    0.00000       Uiso       1.00
      H293          H  0.8622253  0.5798663  0.4619844    0.00000       Uiso       1.00
      H294          H  0.9027340  0.6457175  0.4454582    0.00000       Uiso       1.00
      C605          C  0.9616306  0.7820902  0.4561535    0.00000       Uiso       1.00
      C606          C  0.9620895  0.7620549  0.4567013    0.00000       Uiso       1.00
      C607          C  0.9817355  0.7629446  0.4592572    0.00000       Uiso       1.00
      C608          C  0.9822481  0.7424304  0.4588559    0.00000       Uiso       1.00
      C609          C  0.9637206  0.7201484  0.4545048    0.00000       Uiso       1.00
      C610          C  0.9443582  0.7195462  0.4514282    0.00000       Uiso       1.00
      C611          C  0.9423031  0.7404667  0.4542363    0.00000       Uiso       1.00
       O11          O  0.9796443  0.8043945  0.4579223    0.00000       Uiso       1.00
      H295          H  0.9966758  0.7796778  0.4616727    0.00000       Uiso       1.00
      H296          H  0.9973935  0.7442992  0.4617972    0.00000       Uiso       1.00
      H297          H  0.9314637  0.7024801  0.4454123    0.00000       Uiso       1.00
      C612          C  0.7950822  0.6357265  0.4562187    0.00000       Uiso       1.00
      C613          C  0.8151126  0.6567704  0.4567831    0.00000       Uiso       1.00
      C614          C  0.8142221  0.6780789  0.4593331    0.00000       Uiso       1.00
      C615          C  0.8347345  0.6987053  0.4589291    0.00000       Uiso       1.00
      C616          C  0.8570164  0.6981149  0.4545901    0.00000       Uiso       1.00
      C617          C  0.8576172  0.6762815  0.4515297    0.00000       Uiso       1.00
      C618          C  0.8366966  0.6561105  0.4543314    0.00000       Uiso       1.00
       O12          O  0.7727885  0.6332033  0.4579613    0.00000       Uiso       1.00
      H298          H  0.7974880  0.6786924  0.4617392    0.00000       Uiso       1.00
      H299          H  0.8328639  0.7149168  0.4618556    0.00000       Uiso       1.00
      H300          H  0.8746841  0.6744413  0.4455256    0.00000       Uiso       1.00
        B4          B  0.7598224  0.6078303  0.4556918    0.00000       Uiso       1.00
        B5          B  0.9694964  0.8173662  0.4556749    0.00000       Uiso       1.00
        B6          B  0.9693586  0.6077023  0.4556915    0.00000       Uiso       1.00
       Si1         Si  0.3822514  0.5695938  0.3822578    0.00000       Uiso       1.00
        B7          B  0.3911304  0.5408382  0.3903491    0.00000       Uiso       1.00
       O13          O  0.4022234  0.5592299  0.3794339    0.00000       Uiso       1.00
       O14          O  0.3547496  0.5592393  0.4022370    0.00000       Uiso       1.00
        B8          B  0.3365335  0.5408393  0.3911487    0.00000       Uiso       1.00
        B9          B  0.3903332  0.5408379  0.3365449    0.00000       Uiso       1.00
       O15          O  0.3794055  0.5592188  0.3547551    0.00000       Uiso       1.00
       O16          O  0.3684490  0.5214011  0.3889107    0.00000       Uiso       1.00
       O17          O  0.3412194  0.5214090  0.3684641    0.00000       Uiso       1.00
       O18          O  0.3889183  0.5214200  0.3412361    0.00000       Uiso       1.00
       Si2         Si  0.3628370  0.5113304  0.3628390    0.00000       Uiso       1.00
       O19          O  0.3925101  0.6004059  0.3925326    0.00000       Uiso       1.00
      H301          H  0.4081918  0.6048922  0.3801151    0.00000       Uiso       1.00
       O20          O  0.3525738  0.4805176  0.3525768    0.00000       Uiso       1.00
      H302          H  0.3498321  0.4760243  0.3376923    0.00000       Uiso       1.00
       Si3         Si  0.3822516  0.1949067  0.3822557    0.00000       Uiso       1.00
       B10          B  0.3903435  0.2406331  0.3911345    0.00000       Uiso       1.00
       O21          O  0.3794282  0.2224193  0.4022275    0.00000       Uiso       1.00
       O22          O  0.4022307  0.1977384  0.3547541    0.00000       Uiso       1.00
       B11          B  0.3911417  0.1868334  0.3365386    0.00000       Uiso       1.00
       B12          B  0.3365379  0.1860307  0.3903384    0.00000       Uiso       1.00
       O23          O  0.3547482  0.1749324  0.3794104    0.00000       Uiso       1.00
       O24          O  0.3889046  0.2359500  0.3684537    0.00000       Uiso       1.00
       O25          O  0.3684569  0.1882647  0.3412249    0.00000       Uiso       1.00
       O26          O  0.3412294  0.2087251  0.3889236    0.00000       Uiso       1.00
       Si4         Si  0.3628322  0.2143363  0.3628424    0.00000       Uiso       1.00
       O27          O  0.3925267  0.1846283  0.3925138    0.00000       Uiso       1.00
      H303          H  0.3801093  0.1834063  0.4081955    0.00000       Uiso       1.00
       O28          O  0.3525696  0.2246233  0.3525797    0.00000       Uiso       1.00
      H304          H  0.3376848  0.2114899  0.3498383    0.00000       Uiso       1.00
      C619          C  0.7960562  0.6344957  0.9624808    0.00000       Uiso       1.00
      C620          C  0.8166485  0.6549389  0.9635627    0.00000       Uiso       1.00
      C621          C  0.8173033  0.6745591  0.9849225    0.00000       Uiso       1.00
      C622          C  0.8376555  0.6953503  0.9853499    0.00000       Uiso       1.00
      C623          C  0.8573409  0.6975322  0.9640755    0.00000       Uiso       1.00
      C624          C  0.8561432  0.6776679  0.9426685    0.00000       Uiso       1.00
      C625          C  0.8369020  0.6557413  0.9423407    0.00000       Uiso       1.00
       O29          O  0.7744631  0.6312144  0.9813099    0.00000       Uiso       1.00
      H305          H  0.8019328  0.6736836  0.0013211    0.00000       Uiso       1.00
      H306          H  0.8375677  0.7096586  0.0024533    0.00000       Uiso       1.00
      H307          H  0.8695220  0.6797301  0.9258294    0.00000       Uiso       1.00
      C626          C  0.9427257  0.6146876  0.7960596    0.00000       Uiso       1.00
      C627          C  0.9222889  0.6136022  0.8166582    0.00000       Uiso       1.00
      C628          C  0.9026610  0.5922462  0.8173133    0.00000       Uiso       1.00
      C629          C  0.8818702  0.5918242  0.8376653    0.00000       Uiso       1.00
      C630          C  0.8796927  0.6131008  0.8573483    0.00000       Uiso       1.00
      C631          C  0.8995710  0.6345010  0.8561527    0.00000       Uiso       1.00
      C632          C  0.9214970  0.6348217  0.8369130    0.00000       Uiso       1.00
       O30          O  0.9459887  0.5958647  0.7744573    0.00000       Uiso       1.00
      H308          H  0.9035224  0.5758479  0.8019409    0.00000       Uiso       1.00
      H309          H  0.8675563  0.5747221  0.8375734    0.00000       Uiso       1.00
      H310          H  0.8975234  0.6513449  0.8695242    0.00000       Uiso       1.00
      C633          C  0.9625024  0.7811269  0.9427000    0.00000       Uiso       1.00
      C634          C  0.9635918  0.7605246  0.9222729    0.00000       Uiso       1.00
      C635          C  0.9849581  0.7598669  0.9026638    0.00000       Uiso       1.00
      C636          C  0.9853945  0.7395066  0.8818792    0.00000       Uiso       1.00
      C637          C  0.9641216  0.7198172  0.8796957    0.00000       Uiso       1.00
      C638          C  0.9427090  0.7210143  0.8995572    0.00000       Uiso       1.00
      C639          C  0.9423723  0.7402689  0.9214747    0.00000       Uiso       1.00
       O31          O  0.9813328  0.8027194  0.9459733    0.00000       Uiso       1.00
      H311          H  0.0013501  0.7752487  0.9035422    0.00000       Uiso       1.00
      H312          H  0.0025009  0.7395958  0.8675737    0.00000       Uiso       1.00
      H313          H  0.9258710  0.7076292  0.8974977    0.00000       Uiso       1.00
      C640          C  0.9414680  0.7821046  0.9615979    0.00000       Uiso       1.00
      C641          C  0.9204192  0.7620772  0.9620495    0.00000       Uiso       1.00
      C642          C  0.8990958  0.7629858  0.9816744    0.00000       Uiso       1.00
      C643          C  0.8784624  0.7424780  0.9821855    0.00000       Uiso       1.00
      C644          C  0.8790657  0.7201864  0.9636821    0.00000       Uiso       1.00
      C645          C  0.9009116  0.7195646  0.9443387    0.00000       Uiso       1.00
      C646          C  0.9210890  0.7404782  0.9422784    0.00000       Uiso       1.00
       O32          O  0.9439884  0.8044115  0.9796084    0.00000       Uiso       1.00
      H314          H  0.8984743  0.7797248  0.9966025    0.00000       Uiso       1.00
      H315          H  0.8622350  0.7443537  0.9973119    0.00000       Uiso       1.00
      H316          H  0.9027448  0.7024891  0.9314633    0.00000       Uiso       1.00
      C647          C  0.9616424  0.6357150  0.7950956    0.00000       Uiso       1.00
      C648          C  0.9621007  0.6567568  0.8151305    0.00000       Uiso       1.00
      C649          C  0.9817463  0.6780704  0.8142414    0.00000       Uiso       1.00
      C650          C  0.9822584  0.6986954  0.8347551    0.00000       Uiso       1.00
      C651          C  0.9637311  0.6980971  0.8570359    0.00000       Uiso       1.00
      C652          C  0.9443692  0.6762589  0.8576376    0.00000       Uiso       1.00
      C653          C  0.9423144  0.6560917  0.8367176    0.00000       Uiso       1.00
       O33          O  0.9796560  0.6331949  0.7727924    0.00000       Uiso       1.00
      H317          H  0.9966865  0.6786944  0.7975090    0.00000       Uiso       1.00
      H318          H  0.9974034  0.7149145  0.8328868    0.00000       Uiso       1.00
      H319          H  0.9314749  0.6744133  0.8747029    0.00000       Uiso       1.00
      C654          C  0.7950947  0.6155809  0.9414511    0.00000       Uiso       1.00
      C655          C  0.8151250  0.6151337  0.9204084    0.00000       Uiso       1.00
      C656          C  0.8142349  0.5954851  0.8991004    0.00000       Uiso       1.00
      C657          C  0.8347473  0.5949689  0.8784750    0.00000       Uiso       1.00
      C658          C  0.8570290  0.6135038  0.8790660    0.00000       Uiso       1.00
      C659          C  0.8576294  0.6328771  0.9008989    0.00000       Uiso       1.00
      C660          C  0.8367087  0.6349273  0.9210688    0.00000       Uiso       1.00
       O34          O  0.7728013  0.5975513  0.9439736    0.00000       Uiso       1.00
      H320          H  0.7975010  0.5805423  0.8984864    0.00000       Uiso       1.00
      H321          H  0.8328769  0.5798134  0.8622638    0.00000       Uiso       1.00
      H322          H  0.8746960  0.6457812  0.9027395    0.00000       Uiso       1.00
       B13          B  0.7598352  0.6076874  0.9693456    0.00000       Uiso       1.00
       B14          B  0.9695087  0.6078275  0.7598208    0.00000       Uiso       1.00
       B15          B  0.9693667  0.8173663  0.9694796    0.00000       Uiso       1.00
       Si5         Si  0.3822753  0.1948905  0.0075697    0.00000       Uiso       1.00
       B16          B  0.3911532  0.2406165  0.0363249    0.00000       Uiso       1.00
       O35          O  0.4022468  0.2224039  0.0179340    0.00000       Uiso       1.00
       O36          O  0.3547729  0.1977203  0.0179233    0.00000       Uiso       1.00
       B17          B  0.3365574  0.1868142  0.0363224    0.00000       Uiso       1.00
       B18          B  0.3903585  0.1860152  0.0363250    0.00000       Uiso       1.00
       O37          O  0.3794305  0.1749165  0.0179444    0.00000       Uiso       1.00
       O38          O  0.3684720  0.2359319  0.0557609    0.00000       Uiso       1.00
       O39          O  0.3412439  0.1882457  0.0557522    0.00000       Uiso       1.00
       O40          O  0.3889431  0.2087090  0.0557424    0.00000       Uiso       1.00
       Si6         Si  0.3628611  0.2143182  0.0658312    0.00000       Uiso       1.00
       O41          O  0.3925339  0.1846137  0.9767594    0.00000       Uiso       1.00
      H323          H  0.4082159  0.1833928  0.9722736    0.00000       Uiso       1.00
       O42          O  0.3525980  0.2246042  0.0966428    0.00000       Uiso       1.00
      H324          H  0.3498570  0.2114710  0.1011359    0.00000       Uiso       1.00
      C661          C  0.7960453  0.1240495  0.9426838    0.00000       Uiso       1.00
      C662          C  0.8166376  0.1252824  0.9222416    0.00000       Uiso       1.00
      C663          C  0.8172917  0.1276772  0.9026219    0.00000       Uiso       1.00
      C664          C  0.8376439  0.1276674  0.8818318    0.00000       Uiso       1.00
      C665          C  0.8573298  0.1238979  0.8796505    0.00000       Uiso       1.00
      C666          C  0.8561329  0.1211570  0.8995141    0.00000       Uiso       1.00
      C667          C  0.8368917  0.1235129  0.9214397    0.00000       Uiso       1.00
       O43          O  0.7744519  0.1245653  0.9459644    0.00000       Uiso       1.00
      H325          H  0.8019208  0.1295799  0.9034965    0.00000       Uiso       1.00
      H326          H  0.8375556  0.1303753  0.8675234    0.00000       Uiso       1.00
      H327          H  0.8695122  0.1156355  0.8974523    0.00000       Uiso       1.00
      C668          C  0.9427192  0.1241155  0.9624949    0.00000       Uiso       1.00
      C669          C  0.9222818  0.1253613  0.9635797    0.00000       Uiso       1.00
      C670          C  0.9026539  0.1277427  0.9849346    0.00000       Uiso       1.00
      C671          C  0.8818625  0.1277245  0.9853562    0.00000       Uiso       1.00
      C672          C  0.8796845  0.1239536  0.9640800    0.00000       Uiso       1.00
      C673          C  0.8995629  0.1212379  0.9426809    0.00000       Uiso       1.00
      C674          C  0.9214893  0.1236052  0.9423608    0.00000       Uiso       1.00
       O44          O  0.9459827  0.1245990  0.9813173    0.00000       Uiso       1.00
      H328          H  0.9035156  0.1296291  0.0013319    0.00000       Uiso       1.00
      H329          H  0.8675486  0.1304189  0.0024568    0.00000       Uiso       1.00
      H330          H  0.8975151  0.1157182  0.9258374    0.00000       Uiso       1.00
      C675          C  0.9624918  0.1240983  0.7960607    0.00000       Uiso       1.00
      C676          C  0.9635816  0.1253625  0.8166624    0.00000       Uiso       1.00
      C677          C  0.9849483  0.1277788  0.8173207    0.00000       Uiso       1.00
      C678          C  0.9853853  0.1277906  0.8376804    0.00000       Uiso       1.00
      C679          C  0.9641126  0.1240216  0.8573688    0.00000       Uiso       1.00
      C680          C  0.9426996  0.1212721  0.8561712    0.00000       Uiso       1.00
      C681          C  0.9423623  0.1235987  0.8369171    0.00000       Uiso       1.00
       O45          O  0.9813220  0.1246113  0.7744693    0.00000       Uiso       1.00
      H331          H  0.0013403  0.1296696  0.8019397    0.00000       Uiso       1.00
      H332          H  0.0024920  0.1305041  0.8375917    0.00000       Uiso       1.00
      H333          H  0.9258618  0.1157581  0.8695554    0.00000       Uiso       1.00
      C682          C  0.9414570  0.1209826  0.7950824    0.00000       Uiso       1.00
      C683          C  0.9204081  0.1204110  0.8151088    0.00000       Uiso       1.00
      C684          C  0.8990843  0.1178024  0.8141997    0.00000       Uiso       1.00
      C685          C  0.8784510  0.1181862  0.8347065    0.00000       Uiso       1.00
      C686          C  0.8790547  0.1225771  0.8569974    0.00000       Uiso       1.00
      C687          C  0.9009010  0.1257029  0.8576198    0.00000       Uiso       1.00
      C688          C  0.9210784  0.1229083  0.8367072    0.00000       Uiso       1.00
       O46          O  0.9439769  0.1192074  0.7727763    0.00000       Uiso       1.00
      H334          H  0.8984625  0.1153703  0.7974612    0.00000       Uiso       1.00
      H335          H  0.8622231  0.1152082  0.8328303    0.00000       Uiso       1.00
      H336          H  0.9027345  0.1317361  0.8746949    0.00000       Uiso       1.00
      C689          C  0.9616358  0.1210424  0.9414684    0.00000       Uiso       1.00
      C690          C  0.9620937  0.1204946  0.9204273    0.00000       Uiso       1.00
      C691          C  0.9817392  0.1179391  0.8991147    0.00000       Uiso       1.00
      C692          C  0.9822508  0.1183403  0.8784903    0.00000       Uiso       1.00
      C693          C  0.9637228  0.1226911  0.8790882    0.00000       Uiso       1.00
      C694          C  0.9443610  0.1257673  0.9009253    0.00000       Uiso       1.00
      C695          C  0.9423068  0.1229591  0.9210919    0.00000       Uiso       1.00
       O47          O  0.9796500  0.1192742  0.9439889    0.00000       Uiso       1.00
      H337          H  0.9966799  0.1155240  0.8984911    0.00000       Uiso       1.00
      H338          H  0.9973958  0.1153994  0.8622720    0.00000       Uiso       1.00
      H339          H  0.9314662  0.1317830  0.9027705    0.00000       Uiso       1.00
      C696          C  0.7950845  0.1209727  0.9615980    0.00000       Uiso       1.00
      C697          C  0.8151155  0.1204088  0.9620456    0.00000       Uiso       1.00
      C698          C  0.8142259  0.1178588  0.9816937    0.00000       Uiso       1.00
      C699          C  0.8347389  0.1182634  0.9822104    0.00000       Uiso       1.00
      C700          C  0.8570203  0.1226031  0.9636765    0.00000       Uiso       1.00
      C701          C  0.8576201  0.1256635  0.9443038    0.00000       Uiso       1.00
      C702          C  0.8366989  0.1228612  0.9422531    0.00000       Uiso       1.00
       O48          O  0.7727911  0.1192295  0.9796265    0.00000       Uiso       1.00
      H340          H  0.7974921  0.1154522  0.9966356    0.00000       Uiso       1.00
      H341          H  0.8328689  0.1153369  0.9973654    0.00000       Uiso       1.00
      H342          H  0.8746865  0.1316682  0.9314005    0.00000       Uiso       1.00
       B19          B  0.7598243  0.1214987  0.9694905    0.00000       Uiso       1.00
       B20          B  0.9695031  0.1215214  0.9693554    0.00000       Uiso       1.00
       B21          B  0.9693553  0.1215040  0.7598224    0.00000       Uiso       1.00
       Si7         Si  0.0075813  0.1949634  0.3822699    0.00000       Uiso       1.00
       B22          B  0.0363372  0.1868711  0.3911468    0.00000       Uiso       1.00
       O49          O  0.0179462  0.1977864  0.4022407    0.00000       Uiso       1.00
       O50          O  0.0179345  0.1749844  0.3547678    0.00000       Uiso       1.00
       B23          B  0.0363336  0.1860741  0.3365524    0.00000       Uiso       1.00
       B24          B  0.0363376  0.2406782  0.3903525    0.00000       Uiso       1.00
       O51          O  0.0179563  0.2224676  0.3794251    0.00000       Uiso       1.00
       O52          O  0.0557731  0.1883105  0.3684657    0.00000       Uiso       1.00
       O53          O  0.0557640  0.2087594  0.3412383    0.00000       Uiso       1.00
       O54          O  0.0557553  0.2359866  0.3889366    0.00000       Uiso       1.00
       Si8         Si  0.0658436  0.2143838  0.3628549    0.00000       Uiso       1.00
       O55          O  0.9767706  0.1846878  0.3925289    0.00000       Uiso       1.00
      H343          H  0.9722851  0.1971053  0.4082108    0.00000       Uiso       1.00
       O56          O  0.0966557  0.2246468  0.3525914    0.00000       Uiso       1.00
      H344          H  0.1011489  0.2395322  0.3498503    0.00000       Uiso       1.00
