data_9
_audit_creation_date              0000-00-00
_audit_creation_method            'LanYouShi'
_symmetry_space_group_name_H-M    'P1'
_cell_length_a                    68.7341995
_cell_length_b                    59.5264015
_cell_length_c                    59.5264015
_cell_angle_alpha                 70.5292969
_cell_angle_beta                  54.7361984
_cell_angle_gamma                 54.7361984
loop_
_atom_site_label
_atom_site_type_symbol
_atom_site_fract_x
_atom_site_fract_y
_atom_site_fract_z
_atom_site_U_iso_or_equiv
_atom_site_adp_type
_atom_site_occupancy
        C1          C  0.5000004  0.4999992  0.4999996    0.00000       Uiso       1.00
        C2          C  0.5276570  0.3913080  0.4517862    0.00000       Uiso       1.00
        C3          C  0.5146745  0.4198256  0.4460858    0.00000       Uiso       1.00
        C4          C  0.5046043  0.4292099  0.4276903    0.00000       Uiso       1.00
        C5          C  0.5077909  0.4102791  0.4148580    0.00000       Uiso       1.00
        C6          C  0.5210738  0.3817092  0.4203102    0.00000       Uiso       1.00
        C7          C  0.5309806  0.3723314  0.4388559    0.00000       Uiso       1.00
        H1          H  0.5351868  0.3835563  0.4662375    0.00000       Uiso       1.00
        H2          H  0.4942667  0.4512039  0.4232763    0.00000       Uiso       1.00
        C8          C  0.5392399  0.4460853  0.5801733    0.00000       Uiso       1.00
        C9          C  0.5205572  0.4517856  0.6086910    0.00000       Uiso       1.00
       C10          C  0.5677056  0.4276898  0.5707890    0.00000       Uiso       1.00
       C11          C  0.5773513  0.4148576  0.5897200    0.00000       Uiso       1.00
       C12          C  0.5586163  0.4203097  0.6182898    0.00000       Uiso       1.00
       C13          C  0.5301636  0.4388554  0.6276675    0.00000       Uiso       1.00
        H3          H  0.4985761  0.4662369  0.6164426    0.00000       Uiso       1.00
        H4          H  0.5824572  0.4232759  0.5487951    0.00000       Uiso       1.00
       C14          C  0.3805872  0.5801726  0.5539133    0.00000       Uiso       1.00
       C15          C  0.3707523  0.6086903  0.5482129    0.00000       Uiso       1.00
       C16          C  0.3615057  0.5707883  0.5723087    0.00000       Uiso       1.00
       C17          C  0.3329292  0.5897191  0.5851411    0.00000       Uiso       1.00
       C18          C  0.3230944  0.6182890  0.5796888    0.00000       Uiso       1.00
       C19          C  0.3421692  0.6276668  0.5611432    0.00000       Uiso       1.00
        H5          H  0.3849817  0.6164420  0.5337617    0.00000       Uiso       1.00
        H6          H  0.3687481  0.5487943  0.5767227    0.00000       Uiso       1.00
       C20          C  0.5654997  0.5539131  0.4198262    0.00000       Uiso       1.00
       C21          C  0.5810350  0.5482128  0.3913085    0.00000       Uiso       1.00
       C22          C  0.5661856  0.5723085  0.4292105    0.00000       Uiso       1.00
       C23          C  0.5819300  0.5851409  0.4102796    0.00000       Uiso       1.00
       C24          C  0.5972170  0.5796887  0.3817097    0.00000       Uiso       1.00
       C25          C  0.5966879  0.5611430  0.3723319    0.00000       Uiso       1.00
        H7          H  0.5812567  0.5337615  0.3835568    0.00000       Uiso       1.00
        H8          H  0.5545294  0.5767225  0.4512044    0.00000       Uiso       1.00
        F1          F  0.4970551  0.4207927  0.3955722    0.00000       Uiso       1.00
        F2          F  0.5821521  0.6044267  0.4207932    0.00000       Uiso       1.00
        F3          F  0.3134212  0.5792055  0.6044269    0.00000       Uiso       1.00
        F4          F  0.6073730  0.3955717  0.5792064    0.00000       Uiso       1.00
        F5          F  0.3324906  0.6575187  0.5548217    0.00000       Uiso       1.00
        F6          F  0.5099903  0.4451768  0.6575195    0.00000       Uiso       1.00
        F7          F  0.6126878  0.5548217  0.3424800    0.00000       Uiso       1.00
        F8          F  0.5448326  0.3424794  0.4451773    0.00000       Uiso       1.00
       C26          C  0.4974312  0.4580348  0.5008937    0.00000       Uiso       1.00
       C27          C  0.5035569  0.4792258  0.4856807    0.00000       Uiso       1.00
       C28          C  0.5106218  0.4819971  0.4577953    0.00000       Uiso       1.00
       C29          C  0.5146173  0.4626147  0.4449976    0.00000       Uiso       1.00
       C30          C  0.5106700  0.4402858  0.4598273    0.00000       Uiso       1.00
       C31          C  0.5015966  0.4384922  0.4880772    0.00000       Uiso       1.00
        H9          H  0.4971645  0.4222712  0.5003878    0.00000       Uiso       1.00
       H10          H  0.5210117  0.4650178  0.4233303    0.00000       Uiso       1.00
       C32          C  0.5107628  0.4856802  0.5207730    0.00000       Uiso       1.00
       C33          C  0.5016752  0.5008932  0.5419641    0.00000       Uiso       1.00
       C34          C  0.5315832  0.4577949  0.5180016    0.00000       Uiso       1.00
       C35          C  0.5403856  0.4449971  0.5373841    0.00000       Uiso       1.00
       C36          C  0.5295029  0.4598267  0.5597131    0.00000       Uiso       1.00
       C37          C  0.5103264  0.4880766  0.5615067    0.00000       Uiso       1.00
       H11          H  0.5024476  0.5003873  0.5777278    0.00000       Uiso       1.00
       H12          H  0.5556586  0.4233299  0.5349810    0.00000       Uiso       1.00
       C38          C  0.4684646  0.5207724  0.5143186    0.00000       Uiso       1.00
       C39          C  0.4563610  0.5419635  0.4991055    0.00000       Uiso       1.00
       C40          C  0.4504154  0.5180011  0.5422038    0.00000       Uiso       1.00
       C41          C  0.4222308  0.5373835  0.5550016    0.00000       Uiso       1.00
       C42          C  0.4107844  0.5597124  0.5401719    0.00000       Uiso       1.00
       C43          C  0.4281673  0.5615061  0.5119220    0.00000       Uiso       1.00
       H13          H  0.4198250  0.5777272  0.4996113    0.00000       Uiso       1.00
       H14          H  0.4093609  0.5349805  0.5766689    0.00000       Uiso       1.00
       C44          C  0.5172171  0.5143182  0.4792264    0.00000       Uiso       1.00
       C45          C  0.5445338  0.4991051  0.4580354    0.00000       Uiso       1.00
       C46          C  0.5073810  0.5422034  0.4819977    0.00000       Uiso       1.00
       C47          C  0.5227678  0.5550013  0.4626152    0.00000       Uiso       1.00
       C48          C  0.5490440  0.5401716  0.4402864    0.00000       Uiso       1.00
       C49          C  0.5599110  0.5119217  0.4384927    0.00000       Uiso       1.00
       H15          H  0.5805640  0.4996110  0.4222718    0.00000       Uiso       1.00
       H16          H  0.5139705  0.5766685  0.4650183    0.00000       Uiso       1.00
        F9          F  0.5573319  0.4689411  0.4556437    0.00000       Uiso       1.00
       F10          F  0.4870248  0.4556431  0.5310577    0.00000       Uiso       1.00
       F11          F  0.4737270  0.5443554  0.4689415    0.00000       Uiso       1.00
       F12          F  0.4819174  0.5310572  0.5443559    0.00000       Uiso       1.00
       F13          F  0.4609059  0.4943106  0.5589421    0.00000       Uiso       1.00
       F14          F  0.5447833  0.4410568  0.4943111    0.00000       Uiso       1.00
       F15          F  0.4801522  0.5589416  0.5056881    0.00000       Uiso       1.00
       F16          F  0.5141602  0.5056876  0.4410571    0.00000       Uiso       1.00
       C50          C  0.8749927  0.6250041  0.8750000    0.00000       Uiso       1.00
       C51          C  0.9836854  0.6455600  0.7939655    0.00000       Uiso       1.00
       C52          C  0.9551675  0.6642427  0.8095012    0.00000       Uiso       1.00
       C53          C  0.9457834  0.6927080  0.8088161    0.00000       Uiso       1.00
       C54          C  0.9647146  0.7023535  0.7930719    0.00000       Uiso       1.00
       C55          C  0.9932847  0.6836186  0.7777843    0.00000       Uiso       1.00
       C56          C  0.0026622  0.6551663  0.7783127    0.00000       Uiso       1.00
       H17          H  0.9914370  0.6235793  0.7937430    0.00000       Uiso       1.00
       H18          H  0.9237894  0.7074595  0.8204728    0.00000       Uiso       1.00
       C57          C  0.9289056  0.5055925  0.8603228    0.00000       Uiso       1.00
       C58          C  0.9232044  0.4957582  0.8473405    0.00000       Uiso       1.00
       C59          C  0.9473019  0.4865109  0.8703920    0.00000       Uiso       1.00
       C60          C  0.9601340  0.4579346  0.8672047    0.00000       Uiso       1.00
       C61          C  0.9546808  0.4481004  0.8539221    0.00000       Uiso       1.00
       C62          C  0.9361343  0.4671754  0.8440160    0.00000       Uiso       1.00
       H19          H  0.9087526  0.5099877  0.8398113    0.00000       Uiso       1.00
       H20          H  0.9517166  0.4937527  0.8807296    0.00000       Uiso       1.00
       C63          C  0.7948157  0.6905044  0.8357638    0.00000       Uiso       1.00
       C64          C  0.7662980  0.7060394  0.8544471    0.00000       Uiso       1.00
       C65          C  0.8041992  0.6911907  0.8072985    0.00000       Uiso       1.00
       C66          C  0.7852676  0.7069352  0.7976537    0.00000       Uiso       1.00
       C67          C  0.7566975  0.7222221  0.8163892    0.00000       Uiso       1.00
       C68          C  0.7473206  0.7216926  0.8448414    0.00000       Uiso       1.00
       H21          H  0.7585469  0.7062610  0.8764279    0.00000       Uiso       1.00
       H22          H  0.8261932  0.6795346  0.7925466    0.00000       Uiso       1.00
       C69          C  0.8210818  0.6396765  0.9944121    0.00000       Uiso       1.00
       C70          C  0.8267828  0.6526589  0.0042477    0.00000       Uiso       1.00
       C71          C  0.8026860  0.6296070  0.0134940    0.00000       Uiso       1.00
       C72          C  0.7898543  0.6327932  0.0420704    0.00000       Uiso       1.00
       C73          C  0.7953075  0.6460755  0.0519052    0.00000       Uiso       1.00
       C74          C  0.8138533  0.6559823  0.0328306    0.00000       Uiso       1.00
       H23          H  0.8412344  0.6601881  0.9900177    0.00000       Uiso       1.00
       H24          H  0.7982713  0.6192698  0.0062517    0.00000       Uiso       1.00
       F17          F  0.9542013  0.7323748  0.7928505    0.00000       Uiso       1.00
       F18          F  0.7705683  0.6220576  0.0615782    0.00000       Uiso       1.00
       F19          F  0.7957804  0.7071579  0.7676324    0.00000       Uiso       1.00
       F20          F  0.9794205  0.4384264  0.8779396    0.00000       Uiso       1.00
       F21          F  0.7174684  0.7376925  0.8650152    0.00000       Uiso       1.00
       F22          F  0.9298121  0.4574974  0.8301642    0.00000       Uiso       1.00
       F23          F  0.8201755  0.6698336  0.0425092    0.00000       Uiso       1.00
       F24          F  0.0325143  0.6349931  0.7623120    0.00000       Uiso       1.00
       C75          C  0.9169569  0.6266792  0.8304667    0.00000       Uiso       1.00
       C76          C  0.8957663  0.6357662  0.8577834    0.00000       Uiso       1.00
       C77          C  0.8929958  0.6565861  0.8676199    0.00000       Uiso       1.00
       C78          C  0.9123785  0.6653880  0.8522331    0.00000       Uiso       1.00
       C79          C  0.9347070  0.6545059  0.8259569    0.00000       Uiso       1.00
       C80          C  0.9364998  0.6353301  0.8150895    0.00000       Uiso       1.00
       H25          H  0.9527205  0.6274517  0.7944365    0.00000       Uiso       1.00
       H26          H  0.9099761  0.6806605  0.8610306    0.00000       Uiso       1.00
       C81          C  0.8893114  0.5934687  0.8714427    0.00000       Uiso       1.00
       C82          C  0.8740978  0.5813655  0.8775681    0.00000       Uiso       1.00
       C83          C  0.9171972  0.5754195  0.8643772    0.00000       Uiso       1.00
       C84          C  0.9299946  0.5472353  0.8603809    0.00000       Uiso       1.00
       C85          C  0.9151644  0.5357893  0.8643280    0.00000       Uiso       1.00
       C86          C  0.8869141  0.5531721  0.8734019    0.00000       Uiso       1.00
       H27          H  0.8746030  0.5448301  0.8778338    0.00000       Uiso       1.00
       H28          H  0.9516623  0.5343653  0.8539863    0.00000       Uiso       1.00
       C87          C  0.8542185  0.6422211  0.8642384    0.00000       Uiso       1.00
       C88          C  0.8330275  0.6695375  0.8733267    0.00000       Uiso       1.00
       C89          C  0.8569888  0.6323855  0.8434182    0.00000       Uiso       1.00
       C90          C  0.8376055  0.6477726  0.8346168    0.00000       Uiso       1.00
       C91          C  0.8152767  0.6740484  0.8454999    0.00000       Uiso       1.00
       C92          C  0.8134840  0.6849149  0.8646764    0.00000       Uiso       1.00
       H29          H  0.7972630  0.7055675  0.8725557    0.00000       Uiso       1.00
       H30          H  0.8400080  0.6389756  0.8193440    0.00000       Uiso       1.00
       C93          C  0.8606744  0.6285601  0.9065354    0.00000       Uiso       1.00
       C94          C  0.8758884  0.6224340  0.9186385    0.00000       Uiso       1.00
       C95          C  0.8327888  0.6356250  0.9245849    0.00000       Uiso       1.00
       C96          C  0.8199918  0.6396201  0.9527693    0.00000       Uiso       1.00
       C97          C  0.8348224  0.6356725  0.9642152    0.00000       Uiso       1.00
       C98          C  0.8630726  0.6265990  0.9468321    0.00000       Uiso       1.00
       H31          H  0.8753839  0.6221667  0.9551739    0.00000       Uiso       1.00
       H32          H  0.7983242  0.6460144  0.9656395    0.00000       Uiso       1.00
       F25          F  0.9060528  0.6120276  0.9012721    0.00000       Uiso       1.00
       F26          F  0.9193478  0.6069221  0.8176684    0.00000       Uiso       1.00
       F27          F  0.8306365  0.6823348  0.8930844    0.00000       Uiso       1.00
       F28          F  0.8439333  0.5987315  0.8879750    0.00000       Uiso       1.00
       F29          F  0.8806792  0.6051571  0.8302175    0.00000       Uiso       1.00
       F30          F  0.9339361  0.5859096  0.8608390    0.00000       Uiso       1.00
       F31          F  0.8160496  0.6391637  0.9140949    0.00000       Uiso       1.00
       F32          F  0.8693057  0.6697856  0.8948488    0.00000       Uiso       1.00
       C99          C  0.7500076  0.8749990  0.3749952    0.00000       Uiso       1.00
      C100          C  0.7294555  0.8473393  0.5042412    0.00000       Uiso       1.00
      C101          C  0.7107719  0.8603216  0.4944068    0.00000       Uiso       1.00
      C102          C  0.6823065  0.8703908  0.5134884    0.00000       Uiso       1.00
      C103          C  0.6726615  0.8672035  0.5420646    0.00000       Uiso       1.00
      C104          C  0.6913974  0.8539208  0.5518988    0.00000       Uiso       1.00
      C105          C  0.7198498  0.8440148  0.5328239    0.00000       Uiso       1.00
       H33          H  0.7514364  0.8398103  0.4900116    0.00000       Uiso       1.00
       H34          H  0.6675543  0.8807282  0.5062464    0.00000       Uiso       1.00
      C106          C  0.8694206  0.8357631  0.3094949    0.00000       Uiso       1.00
      C107          C  0.8792550  0.8544465  0.2939599    0.00000       Uiso       1.00
      C108          C  0.8885022  0.8072978  0.3088087    0.00000       Uiso       1.00
      C109          C  0.9170788  0.7976530  0.2930642    0.00000       Uiso       1.00
      C110          C  0.9269133  0.8163886  0.2777773    0.00000       Uiso       1.00
      C111          C  0.9078381  0.8448408  0.2783068    0.00000       Uiso       1.00
       H35          H  0.8650253  0.8764272  0.2937383    0.00000       Uiso       1.00
       H36          H  0.8812603  0.7925458  0.3204649    0.00000       Uiso       1.00
      C112          C  0.6845064  0.9944111  0.3603225    0.00000       Uiso       1.00
      C113          C  0.6689699  0.0042471  0.3473405    0.00000       Uiso       1.00
      C114          C  0.6838205  0.0134934  0.3703925    0.00000       Uiso       1.00
      C115          C  0.6680757  0.0420698  0.3672063    0.00000       Uiso       1.00
      C116          C  0.6527879  0.0519046  0.3539239    0.00000       Uiso       1.00
      C117          C  0.6533167  0.0328300  0.3440171    0.00000       Uiso       1.00
       H37          H  0.6687483  0.9900166  0.3398109    0.00000       Uiso       1.00
       H38          H  0.6954774  0.0062512  0.3807298    0.00000       Uiso       1.00
      C118          C  0.7353315  0.8095001  0.3357566    0.00000       Uiso       1.00
      C119          C  0.7223495  0.7939643  0.3544393    0.00000       Uiso       1.00
      C120          C  0.7454008  0.8088150  0.3072913    0.00000       Uiso       1.00
      C121          C  0.7422138  0.7930709  0.2976458    0.00000       Uiso       1.00
      C122          C  0.7289314  0.7777831  0.3163808    0.00000       Uiso       1.00
      C123          C  0.7190254  0.7783116  0.3448330    0.00000       Uiso       1.00
       H39          H  0.7148204  0.7937418  0.3764201    0.00000       Uiso       1.00
       H40          H  0.7557381  0.8204718  0.2925397    0.00000       Uiso       1.00
       F33          F  0.6426402  0.8779382  0.5615728    0.00000       Uiso       1.00
       F34          F  0.7529487  0.7928494  0.2676246    0.00000       Uiso       1.00
       F35          F  0.6678540  0.0615776  0.3779418    0.00000       Uiso       1.00
       F36          F  0.9365872  0.7676318  0.2928416    0.00000       Uiso       1.00
       F37          F  0.6373158  0.0425085  0.3301658    0.00000       Uiso       1.00
       F38          F  0.9175163  0.8650147  0.2623069    0.00000       Uiso       1.00
       F39          F  0.7051739  0.7623108  0.3650062    0.00000       Uiso       1.00
       F40          F  0.7400240  0.8301631  0.5425020    0.00000       Uiso       1.00
      C124          C  0.7483342  0.8775672  0.4186338    0.00000       Uiso       1.00
      C125          C  0.7392462  0.8714415  0.4065305    0.00000       Uiso       1.00
      C126          C  0.7184262  0.8643758  0.4245797    0.00000       Uiso       1.00
      C127          C  0.7096248  0.8603796  0.4527640    0.00000       Uiso       1.00
      C128          C  0.7205080  0.8643268  0.4642099    0.00000       Uiso       1.00
      C129          C  0.7396840  0.8734010  0.4468272    0.00000       Uiso       1.00
       H41          H  0.7475632  0.8778331  0.4551692    0.00000       Uiso       1.00
       H42          H  0.6943521  0.8539847  0.4656339    0.00000       Uiso       1.00
      C130          C  0.7815433  0.8642375  0.3577782    0.00000       Uiso       1.00
      C131          C  0.7936461  0.8733258  0.3304619    0.00000       Uiso       1.00
      C132          C  0.7995932  0.8434172  0.3676138    0.00000       Uiso       1.00
      C133          C  0.8277777  0.8346158  0.3522267    0.00000       Uiso       1.00
      C134          C  0.8392233  0.8454992  0.3259510    0.00000       Uiso       1.00
      C135          C  0.8218398  0.8646756  0.3150845    0.00000       Uiso       1.00
       H43          H  0.8301814  0.8725550  0.2944317    0.00000       Uiso       1.00
       H44          H  0.8406483  0.8193429  0.3610236    0.00000       Uiso       1.00
      C136          C  0.7327904  0.9065344  0.3714391    0.00000       Uiso       1.00
      C137          C  0.7054734  0.9186374  0.3775651    0.00000       Uiso       1.00
      C138          C  0.7426264  0.9245840  0.3643742    0.00000       Uiso       1.00
      C139          C  0.7272391  0.9527683  0.3603790    0.00000       Uiso       1.00
      C140          C  0.7009627  0.9642141  0.3643266    0.00000       Uiso       1.00
      C141          C  0.6900957  0.9468309  0.3734000    0.00000       Uiso       1.00
       H45          H  0.6694426  0.9551727  0.3778321    0.00000       Uiso       1.00
       H46          H  0.7360365  0.9656385  0.3539845    0.00000       Uiso       1.00
      C142          C  0.7464505  0.8577824  0.3642330    0.00000       Uiso       1.00
      C143          C  0.7525768  0.8304656  0.3733201    0.00000       Uiso       1.00
      C144          C  0.7393848  0.8676188  0.3434131    0.00000       Uiso       1.00
      C145          C  0.7353888  0.8522320  0.3346111    0.00000       Uiso       1.00
      C146          C  0.7393365  0.8259558  0.3454934    0.00000       Uiso       1.00
      C147          C  0.7484109  0.8150885  0.3646692    0.00000       Uiso       1.00
       H47          H  0.7528433  0.7944354  0.3725477    0.00000       Uiso       1.00
       H48          H  0.7289938  0.8610295  0.3193386    0.00000       Uiso       1.00
       F41          F  0.7629840  0.8176673  0.3930772    0.00000       Uiso       1.00
       F42          F  0.7680917  0.8879743  0.4012679    0.00000       Uiso       1.00
       F43          F  0.6926755  0.9012710  0.3879712    0.00000       Uiso       1.00
       F44          F  0.7762793  0.8930835  0.3176644    0.00000       Uiso       1.00
       F45          F  0.7698556  0.9140941  0.3608355    0.00000       Uiso       1.00
       F46          F  0.7891035  0.8302163  0.3948421    0.00000       Uiso       1.00
       F47          F  0.7358460  0.8948477  0.3302135    0.00000       Uiso       1.00
       F48          F  0.7052255  0.8608375  0.4140896    0.00000       Uiso       1.00
      C148          C  0.3749979  0.3749945  0.1249997    0.00000       Uiso       1.00
      C149          C  0.4232118  0.3544386  0.2060345    0.00000       Uiso       1.00
      C150          C  0.4289125  0.3357559  0.1904987    0.00000       Uiso       1.00
      C151          C  0.4473085  0.3072906  0.1911838    0.00000       Uiso       1.00
      C152          C  0.4601410  0.2976451  0.2069281    0.00000       Uiso       1.00
      C153          C  0.4546885  0.3163801  0.2222157    0.00000       Uiso       1.00
      C154          C  0.4361423  0.3448323  0.2216873    0.00000       Uiso       1.00
       H49          H  0.4087601  0.3764194  0.2062569    0.00000       Uiso       1.00
       H50          H  0.4517228  0.2925391  0.1795271    0.00000       Uiso       1.00
      C155          C  0.2948220  0.4944060  0.1396769    0.00000       Uiso       1.00
      C156          C  0.2663042  0.5042403  0.1526591    0.00000       Uiso       1.00
      C157          C  0.3042060  0.5134876  0.1296076    0.00000       Uiso       1.00
      C158          C  0.2852746  0.5420638  0.1327949    0.00000       Uiso       1.00
      C159          C  0.2567044  0.5518981  0.1460776    0.00000       Uiso       1.00
      C160          C  0.2473271  0.5328230  0.1559836    0.00000       Uiso       1.00
       H51          H  0.2585528  0.4900107  0.1601882    0.00000       Uiso       1.00
       H52          H  0.3262000  0.5062458  0.1192702    0.00000       Uiso       1.00
      C161          C  0.3210854  0.3094940  0.1642356    0.00000       Uiso       1.00
      C162          C  0.3267860  0.2939589  0.1455523    0.00000       Uiso       1.00
      C163          C  0.3026899  0.3088077  0.1927009    0.00000       Uiso       1.00
      C164          C  0.2898579  0.2930631  0.2023457    0.00000       Uiso       1.00
      C165          C  0.2953104  0.2777762  0.1836102    0.00000       Uiso       1.00
      C166          C  0.3138560  0.2783058  0.1551580    0.00000       Uiso       1.00
       H53          H  0.3412372  0.2937374  0.1235715    0.00000       Uiso       1.00
       H54          H  0.2982756  0.3204639  0.2074529    0.00000       Uiso       1.00
      C167          C  0.4551717  0.3603220  0.0055876    0.00000       Uiso       1.00
      C168          C  0.4836898  0.3473395  0.9957522    0.00000       Uiso       1.00
      C169          C  0.4457874  0.3703915  0.9865057    0.00000       Uiso       1.00
      C170          C  0.4647183  0.3672053  0.9579294    0.00000       Uiso       1.00
      C171          C  0.4932885  0.3539230  0.9480946    0.00000       Uiso       1.00
      C172          C  0.5026665  0.3440163  0.9671692    0.00000       Uiso       1.00
       H55          H  0.4914415  0.3398104  0.0099821    0.00000       Uiso       1.00
       H56          H  0.4237932  0.3807287  0.9937479    0.00000       Uiso       1.00
       F49          F  0.4794275  0.2676239  0.2071495    0.00000       Uiso       1.00
       F50          F  0.4542044  0.3779409  0.9384215    0.00000       Uiso       1.00
       F51          F  0.2705721  0.2928405  0.2323670    0.00000       Uiso       1.00
       F52          F  0.2957878  0.5615721  0.1220601    0.00000       Uiso       1.00
       F53          F  0.3201778  0.2623059  0.1349841    0.00000       Uiso       1.00
       F54          F  0.2174749  0.5425010  0.1698353    0.00000       Uiso       1.00
       F55          F  0.5325187  0.3301649  0.9574907    0.00000       Uiso       1.00
       F56          F  0.4298204  0.3650055  0.2376880    0.00000       Uiso       1.00
      C173          C  0.3741039  0.3733194  0.1695331    0.00000       Uiso       1.00
      C174          C  0.3893171  0.3642323  0.1422164    0.00000       Uiso       1.00
      C175          C  0.4172028  0.3434125  0.1323799    0.00000       Uiso       1.00
      C176          C  0.4300008  0.3346105  0.1477667    0.00000       Uiso       1.00
      C177          C  0.4151708  0.3454927  0.1740430    0.00000       Uiso       1.00
      C178          C  0.3869206  0.3646685  0.1849103    0.00000       Uiso       1.00
       H57          H  0.3746097  0.3725469  0.2055633    0.00000       Uiso       1.00
       H58          H  0.4516683  0.3193380  0.1389692    0.00000       Uiso       1.00
      C179          C  0.3542240  0.4065298  0.1285570    0.00000       Uiso       1.00
      C180          C  0.3330326  0.4186330  0.1224315    0.00000       Uiso       1.00
      C181          C  0.3569950  0.4245790  0.1356226    0.00000       Uiso       1.00
      C182          C  0.3376120  0.4527633  0.1396188    0.00000       Uiso       1.00
      C183          C  0.3152829  0.4642092  0.1356717    0.00000       Uiso       1.00
      C184          C  0.3134895  0.4468263  0.1265977    0.00000       Uiso       1.00
       H59          H  0.2972683  0.4551683  0.1221657    0.00000       Uiso       1.00
       H60          H  0.3400150  0.4656332  0.1460135    0.00000       Uiso       1.00
      C185          C  0.3606793  0.3577774  0.1357612    0.00000       Uiso       1.00
      C186          C  0.3758928  0.3304611  0.1266730    0.00000       Uiso       1.00
      C187          C  0.3327938  0.3676130  0.1565814    0.00000       Uiso       1.00
      C188          C  0.3199963  0.3522258  0.1653828    0.00000       Uiso       1.00
      C189          C  0.3348265  0.3259500  0.1544996    0.00000       Uiso       1.00
      C190          C  0.3630766  0.3150836  0.1353232    0.00000       Uiso       1.00
       H61          H  0.3753876  0.2944309  0.1274438    0.00000       Uiso       1.00
       H62          H  0.2983289  0.3610227  0.1806555    0.00000       Uiso       1.00
      C191          C  0.3957713  0.3714384  0.0934642    0.00000       Uiso       1.00
      C192          C  0.4169622  0.3775645  0.0813613    0.00000       Uiso       1.00
      C193          C  0.3930001  0.3643735  0.0754148    0.00000       Uiso       1.00
      C194          C  0.4123826  0.3603783  0.0472303    0.00000       Uiso       1.00
      C195          C  0.4347115  0.3643260  0.0357846    0.00000       Uiso       1.00
      C196          C  0.4365049  0.3733995  0.0531678    0.00000       Uiso       1.00
       H63          H  0.4527258  0.3778318  0.0448260    0.00000       Uiso       1.00
       H64          H  0.4099796  0.3539841  0.0343601    0.00000       Uiso       1.00
       F57          F  0.4193537  0.3879709  0.0987277    0.00000       Uiso       1.00
       F58          F  0.3439395  0.3930764  0.1823313    0.00000       Uiso       1.00
       F59          F  0.4060571  0.3176636  0.1069152    0.00000       Uiso       1.00
       F60          F  0.3306411  0.4012670  0.1120246    0.00000       Uiso       1.00
       F61          F  0.3160550  0.3948413  0.1697821    0.00000       Uiso       1.00
       F62          F  0.3806858  0.4140889  0.1391608    0.00000       Uiso       1.00
       F63          F  0.3693097  0.3608348  0.0859046    0.00000       Uiso       1.00
       F64          F  0.4339413  0.3302129  0.1051510    0.00000       Uiso       1.00
      C197          C  0.0000020  0.1249999  0.6250053    0.00000       Uiso       1.00
      C198          C  0.0810361  0.1526596  0.4957595    0.00000       Uiso       1.00
      C199          C  0.0655006  0.1396773  0.5055937    0.00000       Uiso       1.00
      C200          C  0.0661859  0.1296081  0.4865122    0.00000       Uiso       1.00
      C201          C  0.0819300  0.1327954  0.4579359    0.00000       Uiso       1.00
      C202          C  0.0972174  0.1460782  0.4481017    0.00000       Uiso       1.00
      C203          C  0.0966888  0.1559841  0.4671767    0.00000       Uiso       1.00
       H65          H  0.0812584  0.1601887  0.5099890    0.00000       Uiso       1.00
       H66          H  0.0545293  0.1192706  0.4937540    0.00000       Uiso       1.00
      C204          C  0.0146785  0.1642359  0.6905057    0.00000       Uiso       1.00
      C205          C  0.0276612  0.1455526  0.7060409    0.00000       Uiso       1.00
      C206          C  0.0046088  0.1927011  0.6911920    0.00000       Uiso       1.00
      C207          C  0.0077959  0.2023460  0.7069366    0.00000       Uiso       1.00
      C208          C  0.0210789  0.1836104  0.7222235    0.00000       Uiso       1.00
      C209          C  0.0309855  0.1551582  0.7216941    0.00000       Uiso       1.00
       H67          H  0.0351907  0.1235718  0.7062625    0.00000       Uiso       1.00
       H68          H  0.9942711  0.2074532  0.6795358    0.00000       Uiso       1.00
      C210          C  0.0392402  0.0055877  0.6396780    0.00000       Uiso       1.00
      C211          C  0.0205576  0.9957517  0.6526599    0.00000       Uiso       1.00
      C212          C  0.0677063  0.9865054  0.6296080    0.00000       Uiso       1.00
      C213          C  0.0773518  0.9579290  0.6327943    0.00000       Uiso       1.00
      C214          C  0.0586164  0.9480942  0.6460765    0.00000       Uiso       1.00
      C215          C  0.0301638  0.9671689  0.6559832    0.00000       Uiso       1.00
       H69          H  0.9985762  0.0099821  0.6601894    0.00000       Uiso       1.00
       H70          H  0.0824583  0.9937477  0.6192708    0.00000       Uiso       1.00
      C216          C  0.8805887  0.1904987  0.6642437    0.00000       Uiso       1.00
      C217          C  0.8707536  0.2060345  0.6455610    0.00000       Uiso       1.00
      C218          C  0.8615074  0.1911837  0.6927090    0.00000       Uiso       1.00
      C219          C  0.8329307  0.2069279  0.7023544    0.00000       Uiso       1.00
      C220          C  0.8230957  0.2222156  0.6836194    0.00000       Uiso       1.00
      C221          C  0.8421704  0.2216872  0.6551672    0.00000       Uiso       1.00
       H71          H  0.8849827  0.2062570  0.6235802    0.00000       Uiso       1.00
       H72          H  0.8687499  0.1795270  0.7074606    0.00000       Uiso       1.00
       F65          F  0.0821516  0.1220606  0.4384277    0.00000       Uiso       1.00
       F66          F  0.8134229  0.2071493  0.7323757    0.00000       Uiso       1.00
       F67          F  0.1073734  0.9384212  0.6220587    0.00000       Uiso       1.00
       F68          F  0.9970606  0.2323672  0.7071592    0.00000       Uiso       1.00
       F69          F  0.0099902  0.9574903  0.6698346    0.00000       Uiso       1.00
       F70          F  0.0448376  0.1349844  0.7376940    0.00000       Uiso       1.00
       F71          F  0.8324915  0.2376879  0.6349940    0.00000       Uiso       1.00
       F72          F  0.1126892  0.1698359  0.4574987    0.00000       Uiso       1.00
      C222          C  0.0445354  0.1224317  0.5813668    0.00000       Uiso       1.00
      C223          C  0.0172185  0.1285573  0.5934700    0.00000       Uiso       1.00
      C224          C  0.0073819  0.1356230  0.5754207    0.00000       Uiso       1.00
      C225          C  0.0227686  0.1396193  0.5472364    0.00000       Uiso       1.00
      C226          C  0.0490449  0.1356721  0.5357906    0.00000       Uiso       1.00
      C227          C  0.0599125  0.1265979  0.5531734    0.00000       Uiso       1.00
       H73          H  0.0805656  0.1221658  0.5448315    0.00000       Uiso       1.00
       H74          H  0.0139710  0.1460142  0.5343665    0.00000       Uiso       1.00
      C228          C  0.0035591  0.1357614  0.6422223    0.00000       Uiso       1.00
      C229          C  0.9974340  0.1266731  0.6695387    0.00000       Uiso       1.00
      C230          C  0.0106242  0.1565817  0.6323868    0.00000       Uiso       1.00
      C231          C  0.0146203  0.1653831  0.6477739    0.00000       Uiso       1.00
      C232          C  0.0106735  0.1544998  0.6740497    0.00000       Uiso       1.00
      C233          C  0.0015999  0.1353233  0.6849161    0.00000       Uiso       1.00
       H75          H  0.9971682  0.1274440  0.7055689    0.00000       Uiso       1.00
       H76          H  0.0210148  0.1806561  0.6389771    0.00000       Uiso       1.00
      C234          C  0.0107641  0.0934644  0.6285614    0.00000       Uiso       1.00
      C235          C  0.0016761  0.0813615  0.6224354    0.00000       Uiso       1.00
      C236          C  0.0315847  0.0754149  0.6356264    0.00000       Uiso       1.00
      C237          C  0.0403866  0.0472305  0.6396216    0.00000       Uiso       1.00
      C238          C  0.0295036  0.0357847  0.6356739    0.00000       Uiso       1.00
      C239          C  0.0103269  0.0531679  0.6266004    0.00000       Uiso       1.00
       H77          H  0.0024476  0.0448262  0.6221683    0.00000       Uiso       1.00
       H78          H  0.0556597  0.0343604  0.6460160    0.00000       Uiso       1.00
      C240          C  0.9684663  0.1422165  0.6357674    0.00000       Uiso       1.00
      C241          C  0.9563627  0.1695333  0.6266803    0.00000       Uiso       1.00
      C242          C  0.9504170  0.1323800  0.6565873    0.00000       Uiso       1.00
      C243          C  0.9222323  0.1477668  0.6653892    0.00000       Uiso       1.00
      C244          C  0.9107860  0.1740430  0.6545070    0.00000       Uiso       1.00
      C245          C  0.9281690  0.1849104  0.6353312    0.00000       Uiso       1.00
       H79          H  0.9198267  0.2055634  0.6274527    0.00000       Uiso       1.00
       H80          H  0.9093623  0.1389692  0.6806618    0.00000       Uiso       1.00
       F73          F  0.9737289  0.1823316  0.6069232    0.00000       Uiso       1.00
       F74          F  0.0573339  0.1120247  0.5987328    0.00000       Uiso       1.00
       F75          F  0.9819180  0.0987279  0.6120292    0.00000       Uiso       1.00
       F76          F  0.9870274  0.1069154  0.6823362    0.00000       Uiso       1.00
       F77          F  0.0447852  0.0859049  0.6391652    0.00000       Uiso       1.00
       F78          F  0.0141622  0.1697825  0.6051584    0.00000       Uiso       1.00
       F79          F  0.9609074  0.1051511  0.6697870    0.00000       Uiso       1.00
       F80          F  0.9801530  0.1391613  0.5859108    0.00000       Uiso       1.00
      C246          C  0.2499992  0.0000000  0.9999808    0.00000       Uiso       1.00
      C247          C  0.2223437  0.0482097  0.1086746    0.00000       Uiso       1.00
      C248          C  0.2353255  0.0539112  0.0801572    0.00000       Uiso       1.00
      C249          C  0.2453951  0.0723071  0.0707736    0.00000       Uiso       1.00
      C250          C  0.2422087  0.0851386  0.0897050    0.00000       Uiso       1.00
      C251          C  0.2289265  0.0796852  0.1182747    0.00000       Uiso       1.00
      C252          C  0.2190201  0.0611392  0.1276518    0.00000       Uiso       1.00
       H81          H  0.2148143  0.0337581  0.1164257    0.00000       Uiso       1.00
       H82          H  0.2557323  0.0767219  0.0487799    0.00000       Uiso       1.00
      C253          C  0.2107625  0.9198237  0.0538922    0.00000       Uiso       1.00
      C254          C  0.2294458  0.8913062  0.0481907    0.00000       Uiso       1.00
      C255          C  0.1822971  0.9292073  0.0722880    0.00000       Uiso       1.00
      C256          C  0.1726519  0.9102758  0.0851195    0.00000       Uiso       1.00
      C257          C  0.1913875  0.8817062  0.0796662    0.00000       Uiso       1.00
      C258          C  0.2198399  0.8723291  0.0611202    0.00000       Uiso       1.00
       H83          H  0.2514267  0.8835551  0.0337392    0.00000       Uiso       1.00
       H84          H  0.1675451  0.9512009  0.0767028    0.00000       Uiso       1.00
      C259          C  0.3694123  0.9460884  0.9198053    0.00000       Uiso       1.00
      C260          C  0.3792464  0.9517898  0.8912879    0.00000       Uiso       1.00
      C261          C  0.3884942  0.9276925  0.9291889    0.00000       Uiso       1.00
      C262          C  0.4170708  0.9148610  0.9102575    0.00000       Uiso       1.00
      C263          C  0.4269049  0.9203143  0.8816879    0.00000       Uiso       1.00
      C264          C  0.4078295  0.9388604  0.8723108    0.00000       Uiso       1.00
       H85          H  0.3650167  0.9662414  0.8835368    0.00000       Uiso       1.00
       H86          H  0.3812524  0.9232777  0.9511826    0.00000       Uiso       1.00
      C265          C  0.1844972  0.0801757  0.9460700    0.00000       Uiso       1.00
      C266          C  0.1689616  0.1086931  0.9517714    0.00000       Uiso       1.00
      C267          C  0.1838112  0.0707921  0.9276741    0.00000       Uiso       1.00
      C268          C  0.1680662  0.0897235  0.9148426    0.00000       Uiso       1.00
      C269          C  0.1527788  0.1182932  0.9202959    0.00000       Uiso       1.00
      C270          C  0.1533081  0.1276702  0.9388419    0.00000       Uiso       1.00
       H87          H  0.1687399  0.1164442  0.9662230    0.00000       Uiso       1.00
       H88          H  0.1954678  0.0487984  0.9232593    0.00000       Uiso       1.00
       F81          F  0.2529439  0.1044249  0.0791922    0.00000       Uiso       1.00
       F82          F  0.1678438  0.0792107  0.8955563    0.00000       Uiso       1.00
       F83          F  0.4365794  0.8955747  0.9207704    0.00000       Uiso       1.00
       F84          F  0.1426305  0.9207886  0.1044057    0.00000       Uiso       1.00
       F85          F  0.4175075  0.9451829  0.8424591    0.00000       Uiso       1.00
       F86          F  0.2400137  0.8424774  0.0547977    0.00000       Uiso       1.00
       F87          F  0.1373076  0.1575219  0.9451644    0.00000       Uiso       1.00
       F88          F  0.2051689  0.0548166  0.1575035    0.00000       Uiso       1.00
      C271          C  0.2525696  0.9991037  0.0419458    0.00000       Uiso       1.00
      C272          C  0.2464427  0.0143187  0.0207554    0.00000       Uiso       1.00
      C273          C  0.2393772  0.0422042  0.0179852    0.00000       Uiso       1.00
      C274          C  0.2353818  0.0550012  0.0373682    0.00000       Uiso       1.00
      C275          C  0.2393297  0.0401706  0.0596965    0.00000       Uiso       1.00
      C276          C  0.2484038  0.0119206  0.0614890    0.00000       Uiso       1.00
       H89          H  0.2528369  0.9996081  0.0777095    0.00000       Uiso       1.00
       H90          H  0.2289870  0.0766685  0.0349660    0.00000       Uiso       1.00
      C277          C  0.2392378  0.9792255  0.0142997    0.00000       Uiso       1.00
      C278          C  0.2483255  0.9580345  0.9990851    0.00000       Uiso       1.00
      C279          C  0.2184178  0.9819957  0.0421850    0.00000       Uiso       1.00
      C280          C  0.2096162  0.9626129  0.0549820    0.00000       Uiso       1.00
      C281          C  0.2204989  0.9402844  0.0401515    0.00000       Uiso       1.00
      C282          C  0.2396750  0.9384919  0.0119016    0.00000       Uiso       1.00
       H91          H  0.2475539  0.9222707  0.9995896    0.00000       Uiso       1.00
       H92          H  0.1943435  0.9650151  0.0766494    0.00000       Uiso       1.00
      C283          C  0.2815353  0.9856808  0.9792070    0.00000       Uiso       1.00
      C284          C  0.2936377  0.0008958  0.9580166    0.00000       Uiso       1.00
      C285          C  0.2995850  0.9577954  0.9819772    0.00000       Uiso       1.00
      C286          C  0.3277696  0.9449983  0.9625943    0.00000       Uiso       1.00
      C287          C  0.3392152  0.9598290  0.9402661    0.00000       Uiso       1.00
      C288          C  0.3218319  0.9880789  0.9384735    0.00000       Uiso       1.00
       H93          H  0.3301730  0.0003914  0.9222528    0.00000       Uiso       1.00
       H94          H  0.3406399  0.9233310  0.9649965    0.00000       Uiso       1.00
      C289          C  0.2327818  0.0207739  0.9856626    0.00000       Uiso       1.00
      C290          C  0.2054649  0.0419648  0.0008772    0.00000       Uiso       1.00
      C291          C  0.2426175  0.0180037  0.9577772    0.00000       Uiso       1.00
      C292          C  0.2272299  0.0373866  0.9449801    0.00000       Uiso       1.00
      C293          C  0.2009537  0.0597149  0.9598107    0.00000       Uiso       1.00
      C294          C  0.1900871  0.0615074  0.9880607    0.00000       Uiso       1.00
       H95          H  0.1694340  0.0777284  0.0003727    0.00000       Uiso       1.00
       H96          H  0.2360269  0.0349844  0.9233128    0.00000       Uiso       1.00
       F89          F  0.1926673  0.0443554  0.0310413    0.00000       Uiso       1.00
       F90          F  0.2629765  0.9689395  0.0443364    0.00000       Uiso       1.00
       F91          F  0.2762711  0.0310599  0.9556258    0.00000       Uiso       1.00
       F92          F  0.2680827  0.9556439  0.9689210    0.00000       Uiso       1.00
       F93          F  0.2890952  0.9410567  0.0056677    0.00000       Uiso       1.00
       F94          F  0.2052172  0.0056868  0.0589241    0.00000       Uiso       1.00
       F95          F  0.2698467  0.9943127  0.9410381    0.00000       Uiso       1.00
       F96          F  0.2358382  0.0589428  0.9942948    0.00000       Uiso       1.00
      C295          C  0.6389489  0.6089467  0.3220318    0.00000       Uiso       1.00
      C296          C  0.6542615  0.6149909  0.2946008    0.00000       Uiso       1.00
      C297          C  0.6572041  0.6067768  0.2728184    0.00000       Uiso       1.00
      C298          C  0.6736287  0.6119791  0.2455446    0.00000       Uiso       1.00
      C299          C  0.6889664  0.6239106  0.2392646    0.00000       Uiso       1.00
      C300          C  0.6860402  0.6317328  0.2614246    0.00000       Uiso       1.00
      C301          C  0.6672642  0.6294885  0.2890163    0.00000       Uiso       1.00
        O1          O  0.6259943  0.5939483  0.3309916    0.00000       Uiso       1.00
       H97          H  0.6996415  0.6380793  0.2572653    0.00000       Uiso       1.00
      C302          C  0.7113599  0.7356825  0.3049415    0.00000       Uiso       1.00
      C303          C  0.6992471  0.7203847  0.3110158    0.00000       Uiso       1.00
      C304          C  0.6804622  0.7174785  0.3380952    0.00000       Uiso       1.00
      C305          C  0.6694053  0.7011965  0.3438237    0.00000       Uiso       1.00
      C306          C  0.6782600  0.6859811  0.3228393    0.00000       Uiso       1.00
      C307          C  0.6975574  0.6888130  0.2957672    0.00000       Uiso       1.00
      C308          C  0.7065576  0.7074453  0.2891439    0.00000       Uiso       1.00
        O2          O  0.7072026  0.7486599  0.3240388    0.00000       Uiso       1.00
       H98          H  0.6742508  0.7280970  0.3547141    0.00000       Uiso       1.00
       H99          H  0.6540967  0.7005200  0.3647990    0.00000       Uiso       1.00
      H100          H  0.7068745  0.6752824  0.2799645    0.00000       Uiso       1.00
      C309          C  0.7665569  0.6633248  0.1229692    0.00000       Uiso       1.00
      C310          C  0.7605302  0.6754289  0.1442950    0.00000       Uiso       1.00
      C311          C  0.7688503  0.6941963  0.1388926    0.00000       Uiso       1.00
      C312          C  0.7635429  0.7052525  0.1604890    0.00000       Uiso       1.00
      C313          C  0.7513981  0.6964143  0.1878390    0.00000       Uiso       1.00
      C314          C  0.7435854  0.6771452  0.1927882    0.00000       Uiso       1.00
      C315          C  0.7459523  0.6681550  0.1717791    0.00000       Uiso       1.00
        O3          O  0.7814468  0.6676031  0.0950669    0.00000       Uiso       1.00
      H101          H  0.7792634  0.7003775  0.1178559    0.00000       Uiso       1.00
      H102          H  0.7692389  0.7205398  0.1554718    0.00000       Uiso       1.00
      H103          H  0.7370806  0.6678135  0.2127920    0.00000       Uiso       1.00
      C316          C  0.7584978  0.6447788  0.1282105    0.00000       Uiso       1.00
      C317          C  0.7429616  0.6380484  0.1551895    0.00000       Uiso       1.00
      C318          C  0.7346482  0.6192370  0.1606701    0.00000       Uiso       1.00
      C319          C  0.7181274  0.6137927  0.1877739    0.00000       Uiso       1.00
      C320          C  0.7080010  0.6283362  0.2099953    0.00000       Uiso       1.00
      C321          C  0.7162620  0.6474690  0.2040828    0.00000       Uiso       1.00
      C322          C  0.7353407  0.6509745  0.1772877    0.00000       Uiso       1.00
        O4          O  0.7666653  0.6349857  0.1043422    0.00000       Uiso       1.00
      H104          H  0.7065522  0.6609066  0.2201470    0.00000       Uiso       1.00
      C323          C  0.7298821  0.7384849  0.2783419    0.00000       Uiso       1.00
      C324          C  0.7366254  0.7270355  0.2560925    0.00000       Uiso       1.00
      C325          C  0.7554324  0.7299379  0.2290261    0.00000       Uiso       1.00
      C326          C  0.7610911  0.7192054  0.2069800    0.00000       Uiso       1.00
      C327          C  0.7467154  0.7069182  0.2113319    0.00000       Uiso       1.00
      C328          C  0.7274904  0.7046327  0.2387080    0.00000       Uiso       1.00
      C329          C  0.7237926  0.7124976  0.2613454    0.00000       Uiso       1.00
        O5          O  0.7398228  0.7540990  0.2765693    0.00000       Uiso       1.00
      H105          H  0.7658729  0.7403463  0.2251284    0.00000       Uiso       1.00
      H106          H  0.7766184  0.7208371  0.1866028    0.00000       Uiso       1.00
      H107          H  0.7141512  0.6981460  0.2423994    0.00000       Uiso       1.00
      C330          C  0.6361949  0.6170158  0.3433438    0.00000       Uiso       1.00
      C331          C  0.6476394  0.6325167  0.3386447    0.00000       Uiso       1.00
      C332          C  0.6447311  0.6407689  0.3603638    0.00000       Uiso       1.00
      C333          C  0.6554555  0.6571574  0.3553109    0.00000       Uiso       1.00
      C334          C  0.6677526  0.6671778  0.3286499    0.00000       Uiso       1.00
      C335          C  0.6700555  0.6590145  0.3071316    0.00000       Uiso       1.00
      C336          C  0.6621854  0.6400787  0.3112971    0.00000       Uiso       1.00
        O6          O  0.6206698  0.6088052  0.3689402    0.00000       Uiso       1.00
      H108          H  0.6343170  0.6342086  0.3811978    0.00000       Uiso       1.00
      H109          H  0.6538066  0.6619989  0.3724837    0.00000       Uiso       1.00
      H110          H  0.6765501  0.6686308  0.2872900    0.00000       Uiso       1.00
        B1          B  0.6144519  0.5940649  0.3607219    0.00000       Uiso       1.00
        B2          B  0.7253318  0.7603560  0.3057479    0.00000       Uiso       1.00
        B3          B  0.7812368  0.6495346  0.0835153    0.00000       Uiso       1.00
      H111          H  0.6466227  0.5965044  0.2768713    0.00000       Uiso       1.00
      H112          H  0.6743606  0.6062660  0.2295410    0.00000       Uiso       1.00
      H113          H  0.7411112  0.6085414  0.1439941    0.00000       Uiso       1.00
      H114          H  0.7131996  0.5983219  0.1910080    0.00000       Uiso       1.00
      C337          C  0.5699282  0.3910518  0.6779678    0.00000       Uiso       1.00
      C338          C  0.5638539  0.3850076  0.7053988    0.00000       Uiso       1.00
      C339          C  0.5368000  0.3932216  0.7271813    0.00000       Uiso       1.00
      C340          C  0.5311531  0.3880194  0.7544550    0.00000       Uiso       1.00
      C341          C  0.5521423  0.3760878  0.7607350    0.00000       Uiso       1.00
      C342          C  0.5791982  0.3682657  0.7385752    0.00000       Uiso       1.00
      C343          C  0.5857698  0.3705100  0.7109833    0.00000       Uiso       1.00
        O7          O  0.5509350  0.4060501  0.6690080    0.00000       Uiso       1.00
      H115          H  0.5949867  0.3619192  0.7427345    0.00000       Uiso       1.00
      C344          C  0.7519845  0.2643161  0.6950585    0.00000       Uiso       1.00
      C345          C  0.7306482  0.2796139  0.6889842    0.00000       Uiso       1.00
      C346          C  0.7360365  0.2825201  0.6619047    0.00000       Uiso       1.00
      C347          C  0.7144262  0.2988021  0.6561762    0.00000       Uiso       1.00
      C348          C  0.6870810  0.3140175  0.6771606    0.00000       Uiso       1.00
      C349          C  0.6821381  0.3111855  0.7042328    0.00000       Uiso       1.00
      C350          C  0.7031474  0.2925534  0.7108561    0.00000       Uiso       1.00
        O8          O  0.7799017  0.2513388  0.6759613    0.00000       Uiso       1.00
      H116          H  0.7570623  0.2719017  0.6452859    0.00000       Uiso       1.00
      H117          H  0.7194163  0.2994785  0.6352009    0.00000       Uiso       1.00
      H118          H  0.6621220  0.3247162  0.7200354    0.00000       Uiso       1.00
      C351          C  0.5528512  0.3366737  0.8770307    0.00000       Uiso       1.00
      C352          C  0.5802546  0.3245696  0.8557048    0.00000       Uiso       1.00
      C353          C  0.6019397  0.3058022  0.8611072    0.00000       Uiso       1.00
      C354          C  0.6292847  0.2947461  0.8395110    0.00000       Uiso       1.00
      C355          C  0.6356517  0.3035844  0.8121610    0.00000       Uiso       1.00
      C356          C  0.6135193  0.3228534  0.8072116    0.00000       Uiso       1.00
      C357          C  0.5858868  0.3318436  0.8282207    0.00000       Uiso       1.00
        O9          O  0.5441173  0.3323954  0.9049329    0.00000       Uiso       1.00
      H119          H  0.5974973  0.2996210  0.8821439    0.00000       Uiso       1.00
      H120          H  0.6452509  0.2794589  0.8445282    0.00000       Uiso       1.00
      H121          H  0.6176866  0.3321851  0.7872078    0.00000       Uiso       1.00
      C358          C  0.5314875  0.3552197  0.8717893    0.00000       Uiso       1.00
      C359          C  0.5362000  0.3619502  0.8448102    0.00000       Uiso       1.00
      C360          C  0.5145558  0.3807615  0.8393296    0.00000       Uiso       1.00
      C361          C  0.5196946  0.3862057  0.8122258    0.00000       Uiso       1.00
      C362          C  0.5463330  0.3716623  0.7900044    0.00000       Uiso       1.00
      C363          C  0.5678144  0.3525296  0.7959170    0.00000       Uiso       1.00
      C364          C  0.5636033  0.3490241  0.8227121    0.00000       Uiso       1.00
       O10          O  0.5059936  0.3650128  0.8956575    0.00000       Uiso       1.00
      H122          H  0.5876064  0.3390920  0.7798527    0.00000       Uiso       1.00
      C365          C  0.7467094  0.2615138  0.7216582    0.00000       Uiso       1.00
      C366          C  0.7197539  0.2729631  0.7439075    0.00000       Uiso       1.00
      C367          C  0.7143967  0.2700607  0.7709740    0.00000       Uiso       1.00
      C368          C  0.6872770  0.2807932  0.7930200    0.00000       Uiso       1.00
      C369          C  0.6649659  0.2930804  0.7886680    0.00000       Uiso       1.00
      C370          C  0.6708316  0.2953659  0.7612919    0.00000       Uiso       1.00
      C371          C  0.6976360  0.2875010  0.7386547    0.00000       Uiso       1.00
       O11          O  0.7704915  0.2458997  0.7234309    0.00000       Uiso       1.00
      H123          H  0.7313480  0.2596524  0.7748717    0.00000       Uiso       1.00
      H124          H  0.6840585  0.2791615  0.8133972    0.00000       Uiso       1.00
      H125          H  0.6546972  0.3018525  0.7576005    0.00000       Uiso       1.00
      C372          C  0.5965554  0.3829826  0.6566558    0.00000       Uiso       1.00
      C373          C  0.6188015  0.3674818  0.6613550    0.00000       Uiso       1.00
      C374          C  0.6458646  0.3592296  0.6396360    0.00000       Uiso       1.00
      C375          C  0.6679245  0.3428411  0.6446888    0.00000       Uiso       1.00
      C376          C  0.6635810  0.3328208  0.6713499    0.00000       Uiso       1.00
      C377          C  0.6362023  0.3409841  0.6928681    0.00000       Uiso       1.00
      C378          C  0.6135620  0.3599198  0.6887026    0.00000       Uiso       1.00
       O12          O  0.5984161  0.3911933  0.6310595    0.00000       Uiso       1.00
      H126          H  0.6497241  0.3657899  0.6188020    0.00000       Uiso       1.00
      H127          H  0.6882899  0.3379997  0.6275162    0.00000       Uiso       1.00
      H128          H  0.6324717  0.3313677  0.7127097    0.00000       Uiso       1.00
        B4          B  0.5692394  0.4059335  0.6392777    0.00000       Uiso       1.00
        B5          B  0.7914361  0.2396427  0.6942523    0.00000       Uiso       1.00
        B6          B  0.5142871  0.3504639  0.9164845    0.00000       Uiso       1.00
      H129          H  0.5199993  0.4034940  0.7231283    0.00000       Uiso       1.00
      H130          H  0.5101683  0.3937325  0.7704586    0.00000       Uiso       1.00
      H131          H  0.4936472  0.3914571  0.8560056    0.00000       Uiso       1.00
      H132          H  0.5025301  0.4016766  0.8089917    0.00000       Uiso       1.00
      C379          C  0.6078460  0.1230302  0.3392074    0.00000       Uiso       1.00
      C380          C  0.5906687  0.1443674  0.3289699    0.00000       Uiso       1.00
      C381          C  0.5825298  0.1390204  0.3154048    0.00000       Uiso       1.00
      C382          C  0.5664227  0.1606300  0.3041642    0.00000       Uiso       1.00
      C383          C  0.5595298  0.1878984  0.3047363    0.00000       Uiso       1.00
      C384          C  0.5682147  0.1928106  0.3181893    0.00000       Uiso       1.00
      C385          C  0.5818428  0.1718326  0.3321689    0.00000       Uiso       1.00
       O13          O  0.6188783  0.0951377  0.3370278    0.00000       Uiso       1.00
      H133          H  0.5886241  0.1180236  0.3137128    0.00000       Uiso       1.00
      H134          H  0.5596808  0.1557063  0.2948780    0.00000       Uiso       1.00
      H135          H  0.5658179  0.2127511  0.3164204    0.00000       Uiso       1.00
      C386          C  0.5357918  0.3220515  0.3941245    0.00000       Uiso       1.00
      C387          C  0.5460298  0.2946370  0.3899637    0.00000       Uiso       1.00
      C388          C  0.5595954  0.2729335  0.4034491    0.00000       Uiso       1.00
      C389          C  0.5708364  0.2455859  0.3979463    0.00000       Uiso       1.00
      C390          C  0.5702642  0.2392647  0.3775709    0.00000       Uiso       1.00
      C391          C  0.5568109  0.2614022  0.3639741    0.00000       Uiso       1.00
      C392          C  0.5428310  0.2890096  0.3713243    0.00000       Uiso       1.00
       O14          O  0.5379711  0.3309042  0.4109850    0.00000       Uiso       1.00
      H136          H  0.5612872  0.2773369  0.4183514    0.00000       Uiso       1.00
      H137          H  0.5801230  0.2295583  0.4096116    0.00000       Uiso       1.00
      H138          H  0.5585800  0.2572363  0.3464303    0.00000       Uiso       1.00
      C393          C  0.4808750  0.3049135  0.2671553    0.00000       Uiso       1.00
      C394          C  0.4850355  0.3109911  0.2843320    0.00000       Uiso       1.00
      C395          C  0.4715497  0.3380418  0.2924709    0.00000       Uiso       1.00
      C396          C  0.4770527  0.3437800  0.3085777    0.00000       Uiso       1.00
      C397          C  0.4974286  0.3228327  0.3154705    0.00000       Uiso       1.00
      C398          C  0.5110259  0.2957830  0.3067854    0.00000       Uiso       1.00
      C399          C  0.5036755  0.2891532  0.2931577    0.00000       Uiso       1.00
       O15          O  0.4640140  0.3239527  0.2561235    0.00000       Uiso       1.00
      H139          H  0.4566468  0.3546363  0.2863768    0.00000       Uiso       1.00
      H140          H  0.4653871  0.3647315  0.3153197    0.00000       Uiso       1.00
      H141          H  0.5285701  0.2800087  0.3091819    0.00000       Uiso       1.00
      C400          C  0.4945796  0.2783931  0.2586978    0.00000       Uiso       1.00
      C401          C  0.5119728  0.2561400  0.2682561    0.00000       Uiso       1.00
      C402          C  0.5254491  0.2290786  0.2601513    0.00000       Uiso       1.00
      C403          C  0.5416695  0.2070164  0.2710519    0.00000       Uiso       1.00
      C404          C  0.5433972  0.2113753  0.2915894    0.00000       Uiso       1.00
      C405          C  0.5294116  0.2387484  0.2997109    0.00000       Uiso       1.00
      C406          C  0.5154642  0.2613744  0.2868735    0.00000       Uiso       1.00
       O16          O  0.4883332  0.2766674  0.2411556    0.00000       Uiso       1.00
      H142          H  0.5234109  0.2251921  0.2452438    0.00000       Uiso       1.00
      H143          H  0.5525690  0.1866162  0.2634157    0.00000       Uiso       1.00
      H144          H  0.5279495  0.2424584  0.3172676    0.00000       Uiso       1.00
      C407          C  0.5229755  0.3433247  0.3804204    0.00000       Uiso       1.00
      C408          C  0.5181147  0.3386269  0.3630275    0.00000       Uiso       1.00
      C409          C  0.5045289  0.3603171  0.3495517    0.00000       Uiso       1.00
      C410          C  0.4986866  0.3552587  0.3333313    0.00000       Uiso       1.00
      C411          C  0.5047733  0.3286349  0.3316031    0.00000       Uiso       1.00
      C412          C  0.5181612  0.3071257  0.3455885    0.00000       Uiso       1.00
      C413          C  0.5268403  0.3112842  0.3595358    0.00000       Uiso       1.00
       O17          O  0.5150037  0.3688386  0.3866667    0.00000       Uiso       1.00
      H145          H  0.4986041  0.3811491  0.3515907    0.00000       Uiso       1.00
      H146          H  0.4891852  0.3723961  0.3224325    0.00000       Uiso       1.00
      H147          H  0.5204090  0.2873213  0.3470506    0.00000       Uiso       1.00
      C414          C  0.6163039  0.1282771  0.3520233    0.00000       Uiso       1.00
      C415          C  0.6067452  0.1552284  0.3568843    0.00000       Uiso       1.00
      C416          C  0.6148503  0.1606000  0.3704695    0.00000       Uiso       1.00
      C417          C  0.6039493  0.1877209  0.3763120    0.00000       Uiso       1.00
      C418          C  0.5834113  0.2099856  0.3702261    0.00000       Uiso       1.00
      C419          C  0.5752894  0.2041213  0.3568388    0.00000       Uiso       1.00
      C420          C  0.5881272  0.1773369  0.3481594    0.00000       Uiso       1.00
       O18          O  0.6338468  0.1044884  0.3599944    0.00000       Uiso       1.00
      H148          H  0.6297583  0.1436552  0.3763939    0.00000       Uiso       1.00
      H149          H  0.6115856  0.1909845  0.3858128    0.00000       Uiso       1.00
      H150          H  0.5577322  0.2202156  0.3545915    0.00000       Uiso       1.00
        B7          B  0.6353422  0.0835647  0.3503343    0.00000       Uiso       1.00
        B8          B  0.5246639  0.3606743  0.4060949    0.00000       Uiso       1.00
        B9          B  0.4689043  0.3057553  0.2396603    0.00000       Uiso       1.00
      C421          C  0.0700848  0.8769679  0.6607914    0.00000       Uiso       1.00
      C422          C  0.0640074  0.8556306  0.6710288    0.00000       Uiso       1.00
      C423          C  0.0369564  0.8609775  0.6845939    0.00000       Uiso       1.00
      C424          C  0.0312182  0.8393680  0.6958344    0.00000       Uiso       1.00
      C425          C  0.0521658  0.8120996  0.6952624    0.00000       Uiso       1.00
      C426          C  0.0792159  0.8071874  0.6818094    0.00000       Uiso       1.00
      C427          C  0.0858455  0.8281654  0.6678299    0.00000       Uiso       1.00
       O19          O  0.0510451  0.9048604  0.6629710    0.00000       Uiso       1.00
      H151          H  0.0203619  0.8819744  0.6862859    0.00000       Uiso       1.00
      H152          H  0.0102664  0.8442917  0.7051206    0.00000       Uiso       1.00
      H153          H  0.0949907  0.7872469  0.6835783    0.00000       Uiso       1.00
      C428          C  0.2519690  0.6779467  0.6058745    0.00000       Uiso       1.00
      C429          C  0.2306319  0.7053611  0.6100352    0.00000       Uiso       1.00
      C430          C  0.2359793  0.7270646  0.5965498    0.00000       Uiso       1.00
      C431          C  0.2143699  0.7544122  0.6020526    0.00000       Uiso       1.00
      C432          C  0.1871011  0.7607334  0.6224279    0.00000       Uiso       1.00
      C433          C  0.1821885  0.7385958  0.6360248    0.00000       Uiso       1.00
      C434          C  0.2031663  0.7109885  0.6286746    0.00000       Uiso       1.00
       O20          O  0.2798617  0.6690938  0.5890140    0.00000       Uiso       1.00
      H154          H  0.2569768  0.7226612  0.5816475    0.00000       Uiso       1.00
      H155          H  0.2192942  0.7704398  0.5903873    0.00000       Uiso       1.00
      H156          H  0.1622478  0.7427618  0.6535686    0.00000       Uiso       1.00
      C435          C  0.0529452  0.6950845  0.7328432    0.00000       Uiso       1.00
      C436          C  0.0803600  0.6890069  0.7156666    0.00000       Uiso       1.00
      C437          C  0.1020638  0.6619561  0.7075277    0.00000       Uiso       1.00
      C438          C  0.1294117  0.6562181  0.6914209    0.00000       Uiso       1.00
      C439          C  0.1357332  0.6771653  0.6845282    0.00000       Uiso       1.00
      C440          C  0.1135956  0.7042150  0.6932133    0.00000       Uiso       1.00
      C441          C  0.0859879  0.7108447  0.7068409    0.00000       Uiso       1.00
       O21          O  0.0440916  0.6760453  0.7438750    0.00000       Uiso       1.00
      H157          H  0.0976613  0.6453617  0.7136217    0.00000       Uiso       1.00
      H158          H  0.1454396  0.6352665  0.6846790    0.00000       Uiso       1.00
      H159          H  0.1177620  0.7199893  0.6908169    0.00000       Uiso       1.00
      C442          C  0.0316720  0.7216048  0.7413007    0.00000       Uiso       1.00
      C443          C  0.0363703  0.7438579  0.7317424    0.00000       Uiso       1.00
      C444          C  0.0146804  0.7709193  0.7398472    0.00000       Uiso       1.00
      C445          C  0.0197392  0.7929816  0.7289466    0.00000       Uiso       1.00
      C446          C  0.0463633  0.7886226  0.7084092    0.00000       Uiso       1.00
      C447          C  0.0678722  0.7612496  0.7002877    0.00000       Uiso       1.00
      C448          C  0.0637133  0.7386237  0.7131252    0.00000       Uiso       1.00
       O22          O  0.0061575  0.7233306  0.7588428    0.00000       Uiso       1.00
      H160          H  0.9938483  0.7748058  0.7547547    0.00000       Uiso       1.00
      H161          H  0.0026023  0.8133817  0.7365829    0.00000       Uiso       1.00
      H162          H  0.0876768  0.7575396  0.6827311    0.00000       Uiso       1.00
      C449          C  0.2467219  0.6566734  0.6195785    0.00000       Uiso       1.00
      C450          C  0.2197704  0.6613712  0.6369714    0.00000       Uiso       1.00
      C451          C  0.2143990  0.6396810  0.6504471    0.00000       Uiso       1.00
      C452          C  0.1872779  0.6447393  0.6666675    0.00000       Uiso       1.00
      C453          C  0.1650127  0.6713632  0.6683956    0.00000       Uiso       1.00
      C454          C  0.1708768  0.6928723  0.6544102    0.00000       Uiso       1.00
      C455          C  0.1976617  0.6887139  0.6404630    0.00000       Uiso       1.00
       O23          O  0.2705103  0.6311595  0.6133322    0.00000       Uiso       1.00
      H163          H  0.2313452  0.6188490  0.6484082    0.00000       Uiso       1.00
      H164          H  0.1840150  0.6276020  0.6775663    0.00000       Uiso       1.00
      H165          H  0.1547822  0.7126767  0.6529482    0.00000       Uiso       1.00
      C456          C  0.0966055  0.8717210  0.6479754    0.00000       Uiso       1.00
      C457          C  0.1188592  0.8447697  0.6431145    0.00000       Uiso       1.00
      C458          C  0.1459211  0.8393981  0.6295294    0.00000       Uiso       1.00
      C459          C  0.1679834  0.8122773  0.6236869    0.00000       Uiso       1.00
      C460          C  0.1636242  0.7900125  0.6297728    0.00000       Uiso       1.00
      C461          C  0.1362507  0.7958768  0.6431600    0.00000       Uiso       1.00
      C462          C  0.1136247  0.8226612  0.6518394    0.00000       Uiso       1.00
       O24          O  0.0983308  0.8955097  0.6400045    0.00000       Uiso       1.00
      H166          H  0.1498086  0.8563429  0.6236050    0.00000       Uiso       1.00
      H167          H  0.1883840  0.8090137  0.6141861    0.00000       Uiso       1.00
      H168          H  0.1325406  0.7797825  0.6454073    0.00000       Uiso       1.00
       B10          B  0.0692425  0.9164333  0.6496645    0.00000       Uiso       1.00
       B11          B  0.2914344  0.6393239  0.5939041    0.00000       Uiso       1.00
       B12          B  0.0143214  0.6942426  0.7603382    0.00000       Uiso       1.00
      C463          C  0.9839377  0.3771118  0.8359745    0.00000       Uiso       1.00
      C464          C  0.9899812  0.3557556  0.8238558    0.00000       Uiso       1.00
      C465          C  0.9817662  0.3610275  0.8050165    0.00000       Uiso       1.00
      C466          C  0.9869678  0.3394012  0.7941669    0.00000       Uiso       1.00
      C467          C  0.9988995  0.3121321  0.8032238    0.00000       Uiso       1.00
      C468          C  0.0067226  0.3072357  0.8224569    0.00000       Uiso       1.00
      C469          C  0.0044790  0.3282553  0.8312730    0.00000       Uiso       1.00
       O25          O  0.9689392  0.4050646  0.8319805    0.00000       Uiso       1.00
      H169          H  0.0130693  0.2872880  0.8318982    0.00000       Uiso       1.00
      C470          C  0.1106766  0.1779655  0.8912876    0.00000       Uiso       1.00
      C471          C  0.0953785  0.2053759  0.8852501    0.00000       Uiso       1.00
      C472          C  0.0924730  0.2270665  0.8935450    0.00000       Uiso       1.00
      C473          C  0.0761906  0.2544052  0.8882176    0.00000       Uiso       1.00
      C474          C  0.0609742  0.2607664  0.8760884    0.00000       Uiso       1.00
      C475          C  0.0638055  0.2386376  0.8683134    0.00000       Uiso       1.00
      C476          C  0.0824380  0.2110053  0.8706893    0.00000       Uiso       1.00
       O26          O  0.1236549  0.1691451  0.9062269    0.00000       Uiso       1.00
      H170          H  0.1030921  0.2226592  0.9039519    0.00000       Uiso       1.00
      H171          H  0.0755148  0.2703899  0.8938843    0.00000       Uiso       1.00
      H172          H  0.0502741  0.2428515  0.8618283    0.00000       Uiso       1.00
      C477          C  0.0383112  0.1951299  0.7645163    0.00000       Uiso       1.00
      C478          C  0.0504163  0.1890519  0.7798151    0.00000       Uiso       1.00
      C479          C  0.0691840  0.1619647  0.7827317    0.00000       Uiso       1.00
      C480          C  0.0802411  0.1562155  0.7990200    0.00000       Uiso       1.00
      C481          C  0.0714035  0.1771979  0.8142256    0.00000       Uiso       1.00
      C482          C  0.0521342  0.2042796  0.8113629    0.00000       Uiso       1.00
      C483          C  0.0431430  0.2109034  0.7927215    0.00000       Uiso       1.00
       O27          O  0.0425887  0.1759622  0.7515039    0.00000       Uiso       1.00
      H173          H  0.0753647  0.1453708  0.7721078    0.00000       Uiso       1.00
      H174          H  0.0955286  0.1352323  0.7996982    0.00000       Uiso       1.00
      H175          H  0.0428030  0.2201156  0.8248622    0.00000       Uiso       1.00
      C484          C  0.0197648  0.2217349  0.7616996    0.00000       Uiso       1.00
      C485          C  0.0130351  0.2440009  0.7731428    0.00000       Uiso       1.00
      C486          C  0.9942235  0.2711256  0.7703109    0.00000       Uiso       1.00
      C487          C  0.9887800  0.2930900  0.7808942    0.00000       Uiso       1.00
      C488          C  0.0033243  0.2886725  0.7929887    0.00000       Uiso       1.00
      C489          C  0.0224573  0.2612789  0.7953362    0.00000       Uiso       1.00
      C490          C  0.0259622  0.2386953  0.7876195    0.00000       Uiso       1.00
       O28          O  0.0099708  0.2233610  0.7459993    0.00000       Uiso       1.00
      H176          H  0.0358956  0.2575508  0.8016903    0.00000       Uiso       1.00
      C491          C  0.1134782  0.1566414  0.8832099    0.00000       Uiso       1.00
      C492          C  0.1020279  0.1613480  0.8677045    0.00000       Uiso       1.00
      C493          C  0.1049296  0.1396392  0.8594446    0.00000       Uiso       1.00
      C494          C  0.0941962  0.1447134  0.8430579    0.00000       Uiso       1.00
      C495          C  0.0819086  0.1713762  0.8330351    0.00000       Uiso       1.00
      C496          C  0.0796238  0.1928861  0.8411865    0.00000       Uiso       1.00
      C497          C  0.0874897  0.1887186  0.8601254    0.00000       Uiso       1.00
       O29          O  0.1290928  0.1310867  0.8913770    0.00000       Uiso       1.00
      H177          H  0.1153382  0.1187903  0.8659868    0.00000       Uiso       1.00
      H178          H  0.0958273  0.1275549  0.8382077    0.00000       Uiso       1.00
      H179          H  0.0731369  0.2127119  0.8315395    0.00000       Uiso       1.00
      C498          C  0.9920079  0.3717962  0.8545319    0.00000       Uiso       1.00
      C499          C  0.0075089  0.3448510  0.8612762    0.00000       Uiso       1.00
      C500          C  0.0157621  0.3395066  0.8800864    0.00000       Uiso       1.00
      C501          C  0.0321509  0.3123939  0.8857570    0.00000       Uiso       1.00
      C502          C  0.0421706  0.2900769  0.8713927    0.00000       Uiso       1.00
      C503          C  0.0340063  0.2959378  0.8521779    0.00000       Uiso       1.00
      C504          C  0.0150702  0.3227435  0.8484744    0.00000       Uiso       1.00
       O30          O  0.9837978  0.3955314  0.8646035    0.00000       Uiso       1.00
      H180          H  0.0092023  0.3564806  0.8905065    0.00000       Uiso       1.00
      H181          H  0.0369931  0.3092009  0.9012804    0.00000       Uiso       1.00
      H182          H  0.0436222  0.2798271  0.8388308    0.00000       Uiso       1.00
       B13          B  0.9690568  0.4164898  0.8501682    0.00000       Uiso       1.00
       B14          B  0.1353508  0.1393202  0.9060643    0.00000       Uiso       1.00
       B15          B  0.0245195  0.1942410  0.7397431    0.00000       Uiso       1.00
      H183          H  0.9714935  0.3818811  0.7984888    0.00000       Uiso       1.00
      H184          H  0.9812540  0.3443827  0.7788958    0.00000       Uiso       1.00
      H185          H  0.9835271  0.2753585  0.7600984    0.00000       Uiso       1.00
      H186          H  0.9733089  0.3134886  0.7792012    0.00000       Uiso       1.00
      C505          C  0.4980120  0.8941302  0.8220665    0.00000       Uiso       1.00
      C506          C  0.5193489  0.8899704  0.7946520    0.00000       Uiso       1.00
      C507          C  0.5140011  0.9034567  0.7729488    0.00000       Uiso       1.00
      C508          C  0.5356103  0.8979545  0.7456011    0.00000       Uiso       1.00
      C509          C  0.5628792  0.8775790  0.7392794    0.00000       Uiso       1.00
      C510          C  0.5677922  0.8639816  0.7614166    0.00000       Uiso       1.00
      C511          C  0.5468146  0.8713313  0.7890242    0.00000       Uiso       1.00
       O31          O  0.4701191  0.9109904  0.8309200    0.00000       Uiso       1.00
      H187          H  0.4930039  0.9183592  0.7773516    0.00000       Uiso       1.00
      H188          H  0.5306860  0.9096203  0.7295735    0.00000       Uiso       1.00
      H189          H  0.5877330  0.8464379  0.7572501    0.00000       Uiso       1.00
      C512          C  0.6970379  0.7671621  0.8049237    0.00000       Uiso       1.00
      C513          C  0.6696230  0.7843387  0.8110018    0.00000       Uiso       1.00
      C514          C  0.6479199  0.7924763  0.8380527    0.00000       Uiso       1.00
      C515          C  0.6205717  0.8085830  0.8437916    0.00000       Uiso       1.00
      C516          C  0.6142495  0.8154768  0.8228447    0.00000       Uiso       1.00
      C517          C  0.6363867  0.8067929  0.7957945    0.00000       Uiso       1.00
      C518          C  0.6639947  0.7931653  0.7891642    0.00000       Uiso       1.00
       O32          O  0.7058917  0.7561298  0.8239628    0.00000       Uiso       1.00
      H190          H  0.6523240  0.7863808  0.8546463    0.00000       Uiso       1.00
      H191          H  0.6045445  0.8153237  0.8647435    0.00000       Uiso       1.00
      H192          H  0.6322200  0.8091901  0.7800203    0.00000       Uiso       1.00
      C519          C  0.6798935  0.8392196  0.6230431    0.00000       Uiso       1.00
      C520          C  0.6859720  0.8289810  0.6443797    0.00000       Uiso       1.00
      C521          C  0.7130234  0.8154161  0.6390320    0.00000       Uiso       1.00
      C522          C  0.7187623  0.8041747  0.6606411    0.00000       Uiso       1.00
      C523          C  0.6978154  0.8047457  0.6879096    0.00000       Uiso       1.00
      C524          C  0.6707650  0.8181983  0.6928225    0.00000       Uiso       1.00
      C525          C  0.6641344  0.8321788  0.6718452    0.00000       Uiso       1.00
       O33          O  0.6989323  0.8370417  0.5951505    0.00000       Uiso       1.00
      H193          H  0.7296177  0.8137247  0.6180351    0.00000       Uiso       1.00
      H194          H  0.7397143  0.7948886  0.6557170    0.00000       Uiso       1.00
      H195          H  0.6549909  0.8164284  0.7127630    0.00000       Uiso       1.00
      C526          C  0.6533726  0.8520355  0.6282909    0.00000       Uiso       1.00
      C527          C  0.6311197  0.8568952  0.6552424    0.00000       Uiso       1.00
      C528          C  0.6040577  0.8704805  0.6606145    0.00000       Uiso       1.00
      C529          C  0.5819958  0.8763219  0.6877355    0.00000       Uiso       1.00
      C530          C  0.5863557  0.8702348  0.7100000    0.00000       Uiso       1.00
      C531          C  0.6137294  0.8568473  0.7041352    0.00000       Uiso       1.00
      C532          C  0.6363550  0.8481691  0.6773504    0.00000       Uiso       1.00
       O34          O  0.6516460  0.8600081  0.6045029    0.00000       Uiso       1.00
      H196          H  0.6001704  0.8764055  0.6436693    0.00000       Uiso       1.00
      H197          H  0.5615952  0.8858228  0.6909992    0.00000       Uiso       1.00
      H198          H  0.6174401  0.8545991  0.7202294    0.00000       Uiso       1.00
      C533          C  0.7183108  0.7587056  0.7784033    0.00000       Uiso       1.00
      C534          C  0.7136121  0.7682645  0.7561504    0.00000       Uiso       1.00
      C535          C  0.7353019  0.7601604  0.7290888    0.00000       Uiso       1.00
      C536          C  0.7302427  0.7710614  0.7070268    0.00000       Uiso       1.00
      C537          C  0.7036185  0.7915985  0.7113861    0.00000       Uiso       1.00
      C538          C  0.6821097  0.7997195  0.7387595    0.00000       Uiso       1.00
      C539          C  0.6862688  0.7868817  0.7613851    0.00000       Uiso       1.00
       O35          O  0.7438253  0.7411634  0.7766772    0.00000       Uiso       1.00
      H199          H  0.7561343  0.7452532  0.7252024    0.00000       Uiso       1.00
      H200          H  0.7473798  0.7634258  0.6866264    0.00000       Uiso       1.00
      H201          H  0.6623049  0.8172761  0.7424698    0.00000       Uiso       1.00
      C540          C  0.5032596  0.8804252  0.8433396    0.00000       Uiso       1.00
      C541          C  0.5302114  0.8630325  0.8386413    0.00000       Uiso       1.00
      C542          C  0.5355839  0.8495555  0.8603308    0.00000       Uiso       1.00
      C543          C  0.5627053  0.8333356  0.8552715    0.00000       Uiso       1.00
      C544          C  0.5849699  0.8316091  0.8286476    0.00000       Uiso       1.00
      C545          C  0.5791047  0.8455955  0.8071393    0.00000       Uiso       1.00
      C546          C  0.5523196  0.8595422  0.8112984    0.00000       Uiso       1.00
       O36          O  0.4794711  0.8866708  0.8688536    0.00000       Uiso       1.00
      H202          H  0.5186392  0.8515922  0.8811630    0.00000       Uiso       1.00
      H203          H  0.5659695  0.8224355  0.8724079    0.00000       Uiso       1.00
      H204          H  0.5951989  0.8470585  0.7873350    0.00000       Uiso       1.00
       B16          B  0.4585467  0.9060991  0.8606899    0.00000       Uiso       1.00
       B17          B  0.7356618  0.7396671  0.8057650    0.00000       Uiso       1.00
       B18          B  0.6807340  0.8503489  0.5835785    0.00000       Uiso       1.00
      C547          C  0.9979028  0.8050790  0.2360449    0.00000       Uiso       1.00
      C548          C  0.0192592  0.8111540  0.2207322    0.00000       Uiso       1.00
      C549          C  0.0139876  0.8382079  0.2177898    0.00000       Uiso       1.00
      C550          C  0.0356142  0.8438556  0.2013651    0.00000       Uiso       1.00
      C551          C  0.0628834  0.8228672  0.1860272    0.00000       Uiso       1.00
      C552          C  0.0677795  0.7958114  0.1889533    0.00000       Uiso       1.00
      C553          C  0.0467596  0.7892390  0.2077293    0.00000       Uiso       1.00
       O37          O  0.9699498  0.8240714  0.2489998    0.00000       Uiso       1.00
      H205          H  0.0877272  0.7800235  0.1753519    0.00000       Uiso       1.00
      C554          C  0.1970504  0.6230282  0.1636318    0.00000       Uiso       1.00
      C555          C  0.1696398  0.6443638  0.1757448    0.00000       Uiso       1.00
      C556          C  0.1479490  0.6389745  0.1945298    0.00000       Uiso       1.00
      C557          C  0.1206101  0.6605840  0.2055868    0.00000       Uiso       1.00
      C558          C  0.1142488  0.6879293  0.1967325    0.00000       Uiso       1.00
      C559          C  0.1363778  0.6928730  0.1774351    0.00000       Uiso       1.00
      C560          C  0.1640104  0.6718646  0.1684345    0.00000       Uiso       1.00
       O38          O  0.2058707  0.5951111  0.1677889    0.00000       Uiso       1.00
      H206          H  0.1523563  0.6179487  0.2007410    0.00000       Uiso       1.00
      H207          H  0.1046252  0.6555933  0.2208956    0.00000       Uiso       1.00
      H208          H  0.1321638  0.7128893  0.1681182    0.00000       Uiso       1.00
      C561          C  0.1798871  0.8221622  0.1084362    0.00000       Uiso       1.00
      C562          C  0.1859651  0.7947588  0.1144625    0.00000       Uiso       1.00
      C563          C  0.2130526  0.7730746  0.1061422    0.00000       Uiso       1.00
      C564          C  0.2188017  0.7457294  0.1114493    0.00000       Uiso       1.00
      C565          C  0.1978188  0.7393618  0.1235943    0.00000       Uiso       1.00
      C566          C  0.1707368  0.7614936  0.1314073    0.00000       Uiso       1.00
      C567          C  0.1641132  0.7891260  0.1290406    0.00000       Uiso       1.00
       O39          O  0.1990552  0.8308969  0.0935461    0.00000       Uiso       1.00
      H209          H  0.2296468  0.7775175  0.0957290    0.00000       Uiso       1.00
      H210          H  0.2397851  0.7297639  0.1057531    0.00000       Uiso       1.00
      H211          H  0.1549003  0.7573258  0.1379123    0.00000       Uiso       1.00
      C568          C  0.1532819  0.8435253  0.1164955    0.00000       Uiso       1.00
      C569          C  0.1310155  0.8388120  0.1320318    0.00000       Uiso       1.00
      C570          C  0.1038905  0.8604555  0.1403455    0.00000       Uiso       1.00
      C571          C  0.0819257  0.8553159  0.1568664    0.00000       Uiso       1.00
      C572          C  0.0863432  0.8286773  0.1669925    0.00000       Uiso       1.00
      C573          C  0.1137372  0.8071968  0.1587312    0.00000       Uiso       1.00
      C574          C  0.1363211  0.8114085  0.1396525    0.00000       Uiso       1.00
       O40          O  0.1516559  0.8690193  0.1083282    0.00000       Uiso       1.00
      H212          H  0.1174655  0.7874046  0.1684407    0.00000       Uiso       1.00
      C575          C  0.2183747  0.6283041  0.1451094    0.00000       Uiso       1.00
      C576          C  0.2136682  0.6552596  0.1383664    0.00000       Uiso       1.00
      C577          C  0.2353772  0.6606176  0.1195595    0.00000       Uiso       1.00
      C578          C  0.2303032  0.6877375  0.1139009    0.00000       Uiso       1.00
      C579          C  0.2036403  0.7100477  0.1282768    0.00000       Uiso       1.00
      C580          C  0.1821302  0.7041811  0.1475018    0.00000       Uiso       1.00
      C581          C  0.1862975  0.6773766  0.1511995    0.00000       Uiso       1.00
       O41          O  0.2439296  0.6045227  0.1351685    0.00000       Uiso       1.00
      H213          H  0.2562262  0.6436670  0.1091187    0.00000       Uiso       1.00
      H214          H  0.2474618  0.6909564  0.0983737    0.00000       Uiso       1.00
      H215          H  0.1623044  0.7203149  0.1608411    0.00000       Uiso       1.00
      C582          C  0.0032182  0.7784518  0.2387987    0.00000       Uiso       1.00
      C583          C  0.0301634  0.7562065  0.2273540    0.00000       Uiso       1.00
      C584          C  0.0355077  0.7291434  0.2302621    0.00000       Uiso       1.00
      C585          C  0.0626205  0.7070843  0.2195375    0.00000       Uiso       1.00
      C586          C  0.0849380  0.7114285  0.2072402    0.00000       Uiso       1.00
      C587          C  0.0790773  0.7388073  0.2049375    0.00000       Uiso       1.00
      C588          C  0.0522714  0.7614467  0.2128078    0.00000       Uiso       1.00
       O42          O  0.9794827  0.7765904  0.2543239    0.00000       Uiso       1.00
      H216          H  0.0185333  0.7252834  0.2406764    0.00000       Uiso       1.00
      H217          H  0.0658133  0.6867189  0.2211862    0.00000       Uiso       1.00
      H218          H  0.0951885  0.7425382  0.1984426    0.00000       Uiso       1.00
       B19          B  0.9585242  0.8057664  0.2605422    0.00000       Uiso       1.00
       B20          B  0.2356959  0.5835777  0.1496595    0.00000       Uiso       1.00
       B21          B  0.1807763  0.8607267  0.0937565    0.00000       Uiso       1.00
      H219          H  0.9931341  0.8550080  0.2283713    0.00000       Uiso       1.00
      H220          H  0.0306329  0.8648403  0.2006333    0.00000       Uiso       1.00
      H221          H  0.0996575  0.8813642  0.1338827    0.00000       Uiso       1.00
      H222          H  0.0615268  0.8724799  0.1617945    0.00000       Uiso       1.00
      C589          C  0.2142107  0.1058679  0.1779322    0.00000       Uiso       1.00
      C590          C  0.2039732  0.1100276  0.2053468    0.00000       Uiso       1.00
      C591          C  0.1904084  0.0965414  0.2270500    0.00000       Uiso       1.00
      C592          C  0.1791677  0.1020436  0.2543978    0.00000       Uiso       1.00
      C593          C  0.1797394  0.1224191  0.2607195    0.00000       Uiso       1.00
      C594          C  0.1931922  0.1360165  0.2385823    0.00000       Uiso       1.00
      C595          C  0.2071719  0.1286669  0.2109747    0.00000       Uiso       1.00
       O43          O  0.2120315  0.0890077  0.1690788    0.00000       Uiso       1.00
      H223          H  0.1887166  0.0816389  0.2226471    0.00000       Uiso       1.00
      H224          H  0.1698817  0.0903778  0.2704252    0.00000       Uiso       1.00
      H225          H  0.1914229  0.1535602  0.2427488    0.00000       Uiso       1.00
      C596          C  0.2691255  0.2328361  0.1950755    0.00000       Uiso       1.00
      C597          C  0.2649650  0.2156596  0.1889974    0.00000       Uiso       1.00
      C598          C  0.2784506  0.2075219  0.1619464    0.00000       Uiso       1.00
      C599          C  0.2729480  0.1914152  0.1562075    0.00000       Uiso       1.00
      C600          C  0.2525728  0.1845214  0.1771544    0.00000       Uiso       1.00
      C601          C  0.2389758  0.1932053  0.2042046    0.00000       Uiso       1.00
      C602          C  0.2463258  0.2068329  0.2108349    0.00000       Uiso       1.00
       O44          O  0.2859858  0.2438685  0.1760364    0.00000       Uiso       1.00
      H226          H  0.2933528  0.2136175  0.1453529    0.00000       Uiso       1.00
      H227          H  0.2846134  0.1846745  0.1352556    0.00000       Uiso       1.00
      H228          H  0.2214321  0.1908081  0.2199788    0.00000       Uiso       1.00
      C603          C  0.1421578  0.1607785  0.3769559    0.00000       Uiso       1.00
      C604          C  0.1593343  0.1710171  0.3556194    0.00000       Uiso       1.00
      C605          C  0.1674730  0.1845821  0.3609671    0.00000       Uiso       1.00
      C606          C  0.1835796  0.1958236  0.3393580    0.00000       Uiso       1.00
      C607          C  0.1904723  0.1952524  0.3120895    0.00000       Uiso       1.00
      C608          C  0.1817874  0.1817998  0.3071766    0.00000       Uiso       1.00
      C609          C  0.1681601  0.1678194  0.3281538    0.00000       Uiso       1.00
       O45          O  0.1311260  0.1629565  0.4048485    0.00000       Uiso       1.00
      H229          H  0.1613789  0.1862735  0.3819640    0.00000       Uiso       1.00
      H230          H  0.1903213  0.2051097  0.3442822    0.00000       Uiso       1.00
      H231          H  0.1841839  0.1835698  0.2872361    0.00000       Uiso       1.00
      C610          C  0.1337005  0.1479626  0.3717081    0.00000       Uiso       1.00
      C611          C  0.1432589  0.1431029  0.3447565    0.00000       Uiso       1.00
      C612          C  0.1351544  0.1295177  0.3393844    0.00000       Uiso       1.00
      C613          C  0.1460551  0.1236762  0.3122633    0.00000       Uiso       1.00
      C614          C  0.1665924  0.1297632  0.2899989    0.00000       Uiso       1.00
      C615          C  0.1747136  0.1431508  0.2958637    0.00000       Uiso       1.00
      C616          C  0.1618761  0.1518290  0.3226486    0.00000       Uiso       1.00
       O46          O  0.1161586  0.1399900  0.3954960    0.00000       Uiso       1.00
      H232          H  0.1202470  0.1235926  0.3563295    0.00000       Uiso       1.00
      H233          H  0.1384190  0.1141753  0.3089996    0.00000       Uiso       1.00
      H234          H  0.1922703  0.1453991  0.2797696    0.00000       Uiso       1.00
      C617          C  0.2554213  0.2412927  0.2215959    0.00000       Uiso       1.00
      C618          C  0.2380285  0.2317337  0.2438489    0.00000       Uiso       1.00
      C619          C  0.2245526  0.2398378  0.2709104    0.00000       Uiso       1.00
      C620          C  0.2083324  0.2289368  0.2929724    0.00000       Uiso       1.00
      C621          C  0.2066047  0.2083997  0.2886130    0.00000       Uiso       1.00
      C622          C  0.2205902  0.2002787  0.2612397    0.00000       Uiso       1.00
      C623          C  0.2345372  0.2131165  0.2386141    0.00000       Uiso       1.00
       O47          O  0.2616673  0.2588349  0.2233221    0.00000       Uiso       1.00
      H235          H  0.2265914  0.2547451  0.2747969    0.00000       Uiso       1.00
      H236          H  0.1974335  0.2365724  0.3133727    0.00000       Uiso       1.00
      H237          H  0.2220526  0.1827221  0.2575292    0.00000       Uiso       1.00
      C624          C  0.2270264  0.1195729  0.1566592    0.00000       Uiso       1.00
      C625          C  0.2318871  0.1369656  0.1613576    0.00000       Uiso       1.00
      C626          C  0.2454720  0.1504426  0.1396682    0.00000       Uiso       1.00
      C627          C  0.2513142  0.1666626  0.1447275    0.00000       Uiso       1.00
      C628          C  0.2452283  0.1683891  0.1713514    0.00000       Uiso       1.00
      C629          C  0.2318413  0.1544027  0.1928597    0.00000       Uiso       1.00
      C630          C  0.2231621  0.1404559  0.1887006    0.00000       Uiso       1.00
       O48          O  0.2349975  0.1133273  0.1311452    0.00000       Uiso       1.00
      H238          H  0.2513964  0.1484059  0.1188359    0.00000       Uiso       1.00
      H239          H  0.2608148  0.1775626  0.1275911    0.00000       Uiso       1.00
      H240          H  0.2295941  0.1529397  0.2126641    0.00000       Uiso       1.00
       B22          B  0.2253378  0.0938989  0.1393088    0.00000       Uiso       1.00
       B23          B  0.2810954  0.2603312  0.1942343    0.00000       Uiso       1.00
       B24          B  0.1146631  0.1496491  0.4164205    0.00000       Uiso       1.00
