data_90
_audit_creation_date              0000-00-00
_audit_creation_method            'LanYouShi'
_symmetry_space_group_name_H-M    'P1'
_cell_length_a                    66.9179001
_cell_length_b                    66.9181976
_cell_length_c                    66.9181976
_cell_angle_alpha                 119.9997025
_cell_angle_beta                  60.0001984
_cell_angle_gamma                 119.9999008
loop_
_atom_site_label
_atom_site_type_symbol
_atom_site_fract_x
_atom_site_fract_y
_atom_site_fract_z
_atom_site_U_iso_or_equiv
_atom_site_adp_type
_atom_site_occupancy
        C1          C  0.5970928  0.7374613  0.5970943    0.00000       Uiso       1.00
        C2          C  0.6096404  0.7247519  0.5736351    0.00000       Uiso       1.00
        C3          C  0.5988616  0.6992684  0.5628594    0.00000       Uiso       1.00
        C4          C  0.5736336  0.7247518  0.6096417    0.00000       Uiso       1.00
        C5          C  0.5627543  0.6993505  0.5988916    0.00000       Uiso       1.00
        C6          C  0.5751507  0.6859420  0.5752742    0.00000       Uiso       1.00
        C7          C  0.5432763  0.4029099  0.2625432    0.00000       Uiso       1.00
        C8          C  0.5414785  0.4263691  0.2752526    0.00000       Uiso       1.00
        C9          C  0.5377064  0.4372485  0.3006537    0.00000       Uiso       1.00
       C10          C  0.5414787  0.3903625  0.2752527    0.00000       Uiso       1.00
       C11          C  0.5375494  0.4011413  0.3007362    0.00000       Uiso       1.00
       C12          C  0.5355183  0.4248517  0.3140614    0.00000       Uiso       1.00
       C13          C  0.2625403  0.4029087  0.5432770    0.00000       Uiso       1.00
       C14          C  0.2752499  0.3903615  0.5414795    0.00000       Uiso       1.00
       C15          C  0.3006516  0.4011097  0.5377043    0.00000       Uiso       1.00
       C16          C  0.2752498  0.4263680  0.5414793    0.00000       Uiso       1.00
       C17          C  0.3007339  0.4371422  0.5375463    0.00000       Uiso       1.00
       C18          C  0.3140603  0.4247250  0.5355130    0.00000       Uiso       1.00
       C19          C  0.5970939  0.4567274  0.5970955    0.00000       Uiso       1.00
       C20          C  0.5736344  0.4585250  0.6096429    0.00000       Uiso       1.00
       C21          C  0.5628585  0.4624535  0.5988640    0.00000       Uiso       1.00
       C22          C  0.6096413  0.4585251  0.5736364    0.00000       Uiso       1.00
       C23          C  0.5988908  0.4622961  0.5627566    0.00000       Uiso       1.00
       C24          C  0.5752734  0.4644832  0.5751529    0.00000       Uiso       1.00
       C25          C  0.5000009  0.5000012  0.4999995    0.00000       Uiso       1.00
        F1          F  0.6346359  0.7379408  0.5598855    0.00000       Uiso       1.00
        F2          F  0.5598848  0.4565819  0.6346383    0.00000       Uiso       1.00
        F3          F  0.5434215  0.4401187  0.2620637    0.00000       Uiso       1.00
        F4          F  0.2620611  0.3653660  0.5434225    0.00000       Uiso       1.00
        F5          F  0.5598838  0.7379404  0.6346369    0.00000       Uiso       1.00
        F6          F  0.5434218  0.3653672  0.2620640    0.00000       Uiso       1.00
        F7          F  0.2620609  0.4401176  0.5434222    0.00000       Uiso       1.00
        F8          F  0.6346369  0.4565822  0.5598868    0.00000       Uiso       1.00
        F9          F  0.6133227  0.6864147  0.5381532    0.00000       Uiso       1.00
       F10          F  0.5374892  0.6869009  0.6129189    0.00000       Uiso       1.00
       F11          F  0.6129187  0.4635085  0.5374919    0.00000       Uiso       1.00
       F12          F  0.5381534  0.4650653  0.6133265    0.00000       Uiso       1.00
       F13          F  0.5364928  0.4625128  0.3131027    0.00000       Uiso       1.00
       F14          F  0.5349396  0.3866777  0.3135882    0.00000       Uiso       1.00
       F15          F  0.3135821  0.4618459  0.5349323    0.00000       Uiso       1.00
       F16          F  0.3131034  0.3870807  0.5364863    0.00000       Uiso       1.00
       C26          C  0.5635048  0.6584193  0.5638875    0.00000       Uiso       1.00
       C27          C  0.5684198  0.6470172  0.5382454    0.00000       Uiso       1.00
       C28          C  0.5577372  0.6214384  0.5276369    0.00000       Uiso       1.00
       C29          C  0.5473145  0.6432132  0.5785996    0.00000       Uiso       1.00
       C30          C  0.5363510  0.6176709  0.5682376    0.00000       Uiso       1.00
       C31          C  0.5415995  0.6067138  0.5426723    0.00000       Uiso       1.00
        H1          H  0.5434804  0.6511216  0.5981900    0.00000       Uiso       1.00
        H2          H  0.5803475  0.6580696  0.5264470    0.00000       Uiso       1.00
       C32          C  0.5310274  0.4364980  0.3415825    0.00000       Uiso       1.00
       C33          C  0.5172904  0.4526797  0.3567885    0.00000       Uiso       1.00
       C34          C  0.5130739  0.4636444  0.3823302    0.00000       Uiso       1.00
       C35          C  0.5403627  0.4315939  0.3529835    0.00000       Uiso       1.00
       C36          C  0.5360753  0.4422776  0.3785605    0.00000       Uiso       1.00
       C37          C  0.5224437  0.4584054  0.3932856    0.00000       Uiso       1.00
        H3          H  0.5512948  0.4196758  0.3419355    0.00000       Uiso       1.00
        H4          H  0.5094346  0.4565063  0.3488799    0.00000       Uiso       1.00
       C38          C  0.3415830  0.4361071  0.5310190    0.00000       Uiso       1.00
       C39          C  0.3567868  0.4213915  0.5172907    0.00000       Uiso       1.00
       C40          C  0.3823316  0.4317523  0.5130737    0.00000       Uiso       1.00
       C41          C  0.3529856  0.4617481  0.5403445    0.00000       Uiso       1.00
       C42          C  0.3785627  0.4723537  0.5360558    0.00000       Uiso       1.00
       C43          C  0.3932889  0.4573203  0.5224347    0.00000       Uiso       1.00
        H5          H  0.3419403  0.4735512  0.5512691    0.00000       Uiso       1.00
        H6          H  0.3488699  0.4017980  0.5094439    0.00000       Uiso       1.00
       C44          C  0.5638871  0.4689732  0.5635068    0.00000       Uiso       1.00
       C45          C  0.5382460  0.4596402  0.5684137    0.00000       Uiso       1.00
       C46          C  0.5276374  0.4639301  0.5577332    0.00000       Uiso       1.00
       C47          C  0.5785986  0.4827080  0.5473236    0.00000       Uiso       1.00
       C48          C  0.5682366  0.4869240  0.5363594    0.00000       Uiso       1.00
       C49          C  0.5426724  0.4775592  0.5416024    0.00000       Uiso       1.00
        H7          H  0.5981885  0.4905601  0.5434951    0.00000       Uiso       1.00
        H8          H  0.5264515  0.4487085  0.5803330    0.00000       Uiso       1.00
       C50          C  0.5021635  0.4548703  0.5629354    0.00000       Uiso       1.00
       C51          C  0.4917438  0.4594796  0.5525360    0.00000       Uiso       1.00
       C52          C  0.5451424  0.4370811  0.3897715    0.00000       Uiso       1.00
       C53          C  0.5405365  0.4474830  0.4151988    0.00000       Uiso       1.00
        H9          H  0.5556957  0.4247851  0.3788584    0.00000       Uiso       1.00
       H10          H  0.5476213  0.4429043  0.4232474    0.00000       Uiso       1.00
       H11          H  0.4902317  0.4443187  0.5752323    0.00000       Uiso       1.00
       H12          H  0.4720325  0.4524006  0.5571156    0.00000       Uiso       1.00
       C54          C  0.5308355  0.5809583  0.5321152    0.00000       Uiso       1.00
       C55          C  0.5364368  0.5699043  0.5065298    0.00000       Uiso       1.00
       C56          C  0.5262527  0.5442071  0.4960821    0.00000       Uiso       1.00
       C57          C  0.5147927  0.5662553  0.5471411    0.00000       Uiso       1.00
       C58          C  0.5044814  0.5406764  0.5365280    0.00000       Uiso       1.00
       C59          C  0.5097875  0.5289230  0.5108017    0.00000       Uiso       1.00
       H13          H  0.4886875  0.5074269  0.4704036    0.00000       Uiso       1.00
       H14          H  0.4636683  0.5236276  0.5280136    0.00000       Uiso       1.00
       C60          C  0.5180112  0.4691696  0.4190401    0.00000       Uiso       1.00
       C61          C  0.5043164  0.4852053  0.4337448    0.00000       Uiso       1.00
       C62          C  0.4996627  0.4955184  0.4593246    0.00000       Uiso       1.00
       C63          C  0.5269526  0.4635783  0.4300935    0.00000       Uiso       1.00
       C64          C  0.5218852  0.4737614  0.4557916    0.00000       Uiso       1.00
       C65          C  0.5083349  0.4902163  0.4710773    0.00000       Uiso       1.00
       H15          H  0.5319367  0.5363314  0.4763732    0.00000       Uiso       1.00
       H16          H  0.5483373  0.5112878  0.4925521    0.00000       Uiso       1.00
       C66          C  0.4190424  0.4678814  0.5180045    0.00000       Uiso       1.00
       C67          C  0.4337462  0.4528553  0.5043207    0.00000       Uiso       1.00
       C68          C  0.4593258  0.4634704  0.4996678    0.00000       Uiso       1.00
       C69          C  0.4300954  0.4934691  0.5269354    0.00000       Uiso       1.00
       C70          C  0.4557937  0.5039186  0.5218682    0.00000       Uiso       1.00
       C71          C  0.4710785  0.4891986  0.5083317    0.00000       Uiso       1.00
       H17          H  0.4763709  0.4719703  0.5319259    0.00000       Uiso       1.00
       H18          H  0.4925655  0.5295990  0.5483335    0.00000       Uiso       1.00
       C72          C  0.5321153  0.4819936  0.5308385    0.00000       Uiso       1.00
       C73          C  0.5065281  0.4730590  0.5364362    0.00000       Uiso       1.00
       C74          C  0.4960807  0.4781272  0.5262522    0.00000       Uiso       1.00
       C75          C  0.5471424  0.4956807  0.5147951    0.00000       Uiso       1.00
       C76          C  0.5365301  0.5003328  0.5044798    0.00000       Uiso       1.00
       C77          C  0.5108024  0.4916681  0.5097877    0.00000       Uiso       1.00
       H19          H  0.4704073  0.4516683  0.4887098    0.00000       Uiso       1.00
       H20          H  0.5280437  0.4680852  0.4636669    0.00000       Uiso       1.00
       C78          C  0.4152007  0.5082533  0.5405083    0.00000       Uiso       1.00
       C79          C  0.3897727  0.4978310  0.5451144    0.00000       Uiso       1.00
       C80          C  0.4225956  0.4273881  0.4951711    0.00000       Uiso       1.00
       C81          C  0.3972315  0.4169792  0.4994625    0.00000       Uiso       1.00
       C82          C  0.5525433  0.5847977  0.4917437    0.00000       Uiso       1.00
       C83          C  0.5629460  0.6102264  0.5021620    0.00000       Uiso       1.00
       C84          C  0.5096241  0.5774071  0.5726092    0.00000       Uiso       1.00
       C85          C  0.5202879  0.6027743  0.5830154    0.00000       Uiso       1.00
       C86          C  0.5726099  0.5048314  0.5096306    0.00000       Uiso       1.00
       C87          C  0.5830140  0.5005379  0.5202985    0.00000       Uiso       1.00
       C88          C  0.4951582  0.4903636  0.4225940    0.00000       Uiso       1.00
       C89          C  0.4994537  0.4796989  0.3972281    0.00000       Uiso       1.00
       H21          H  0.4844921  0.5025681  0.4335336    0.00000       Uiso       1.00
       H22          H  0.4920365  0.4839766  0.3892468    0.00000       Uiso       1.00
       H23          H  0.3892511  0.3973019  0.4920507    0.00000       Uiso       1.00
       H24          H  0.4335340  0.4154570  0.4845137    0.00000       Uiso       1.00
       H25          H  0.4232509  0.5279670  0.5475838    0.00000       Uiso       1.00
       H26          H  0.3788587  0.5097660  0.5556588    0.00000       Uiso       1.00
       H27          H  0.5160041  0.6107606  0.6026921    0.00000       Uiso       1.00
       H28          H  0.4974121  0.5664713  0.5845433    0.00000       Uiso       1.00
       H29          H  0.5571308  0.5767486  0.4720325    0.00000       Uiso       1.00
       H30          H  0.5752514  0.6211449  0.4902306    0.00000       Uiso       1.00
       H31          H  0.6026893  0.5079486  0.5160162    0.00000       Uiso       1.00
       H32          H  0.5845413  0.5154872  0.4974166    0.00000       Uiso       1.00
       C90          C  0.5970932  0.7374614  0.9550751    0.00000       Uiso       1.00
       C91          C  0.5736338  0.7247519  0.9532774    0.00000       Uiso       1.00
       C92          C  0.5628581  0.6992684  0.9493485    0.00000       Uiso       1.00
       C93          C  0.6096407  0.7247521  0.9532776    0.00000       Uiso       1.00
       C94          C  0.5988907  0.6993508  0.9495057    0.00000       Uiso       1.00
       C95          C  0.5752732  0.6859422  0.9473182    0.00000       Uiso       1.00
       C96          C  0.2625395  0.4029083  0.0088924    0.00000       Uiso       1.00
       C97          C  0.2752489  0.4263675  0.0214397    0.00000       Uiso       1.00
       C98          C  0.3006502  0.4372471  0.0106902    0.00000       Uiso       1.00
       C99          C  0.2752500  0.3903615  0.9854333    0.00000       Uiso       1.00
      C100          C  0.3007337  0.4011404  0.9746578    0.00000       Uiso       1.00
      C101          C  0.3140589  0.4248509  0.9870740    0.00000       Uiso       1.00
      C102          C  0.5432760  0.4029098  0.0088936    0.00000       Uiso       1.00
      C103          C  0.5414793  0.3903629  0.9854344    0.00000       Uiso       1.00
      C104          C  0.5377041  0.4011111  0.9745561    0.00000       Uiso       1.00
      C105          C  0.5414783  0.4263690  0.0214408    0.00000       Uiso       1.00
      C106          C  0.5375451  0.4371430  0.0106640    0.00000       Uiso       1.00
      C107          C  0.5355127  0.4247263  0.9869538    0.00000       Uiso       1.00
      C108          C  0.5970939  0.4567275  0.6743416    0.00000       Uiso       1.00
      C109          C  0.6096414  0.4585252  0.6870511    0.00000       Uiso       1.00
      C110          C  0.5988625  0.4624538  0.7125345    0.00000       Uiso       1.00
      C111          C  0.5736346  0.4585250  0.6870509    0.00000       Uiso       1.00
      C112          C  0.5627549  0.4622959  0.7124520    0.00000       Uiso       1.00
      C113          C  0.5751514  0.4644832  0.7258601    0.00000       Uiso       1.00
      C114          C  0.4999981  0.5000013  0.9118029    0.00000       Uiso       1.00
       F17          F  0.5598841  0.7379406  0.9552203    0.00000       Uiso       1.00
       F18          F  0.6346370  0.4565823  0.6738624    0.00000       Uiso       1.00
       F19          F  0.2620601  0.4401171  0.0464351    0.00000       Uiso       1.00
       F20          F  0.5434225  0.3653676  0.9716848    0.00000       Uiso       1.00
       F21          F  0.6346363  0.7379410  0.9552206    0.00000       Uiso       1.00
       F22          F  0.2620613  0.3653660  0.9716837    0.00000       Uiso       1.00
       F23          F  0.5434213  0.4401186  0.0464363    0.00000       Uiso       1.00
       F24          F  0.5598848  0.4565819  0.6738621    0.00000       Uiso       1.00
       F25          F  0.5381516  0.6864145  0.9467400    0.00000       Uiso       1.00
       F26          F  0.6129181  0.6869013  0.9482939    0.00000       Uiso       1.00
       F27          F  0.5374899  0.4635082  0.7249011    0.00000       Uiso       1.00
       F28          F  0.6133254  0.4650657  0.7253885    0.00000       Uiso       1.00
       F29          F  0.3130994  0.4625115  0.0247188    0.00000       Uiso       1.00
       F30          F  0.3135856  0.3866768  0.9499522    0.00000       Uiso       1.00
       F31          F  0.5349311  0.4618466  0.0251332    0.00000       Uiso       1.00
       F32          F  0.5364859  0.3870820  0.9492936    0.00000       Uiso       1.00
      C115          C  0.5638864  0.6584194  0.9428282    0.00000       Uiso       1.00
      C116          C  0.5382441  0.6470172  0.9521533    0.00000       Uiso       1.00
      C117          C  0.5276356  0.6214385  0.9478657    0.00000       Uiso       1.00
      C118          C  0.5785985  0.6432135  0.9291006    0.00000       Uiso       1.00
      C119          C  0.5682366  0.6176713  0.9248839    0.00000       Uiso       1.00
      C120          C  0.5426711  0.6067140  0.9342436    0.00000       Uiso       1.00
       H33          H  0.5981891  0.6511220  0.9212527    0.00000       Uiso       1.00
       H34          H  0.5264456  0.6580695  0.9630763    0.00000       Uiso       1.00
      C121          C  0.3415802  0.4364972  0.9756900    0.00000       Uiso       1.00
      C122          C  0.3567864  0.4526791  0.9904027    0.00000       Uiso       1.00
      C123          C  0.3823282  0.4636439  0.9800421    0.00000       Uiso       1.00
      C124          C  0.3529812  0.4315932  0.9500499    0.00000       Uiso       1.00
      C125          C  0.3785584  0.4422770  0.9394440    0.00000       Uiso       1.00
      C126          C  0.3932836  0.4584050  0.9544781    0.00000       Uiso       1.00
       H35          H  0.3419331  0.4196749  0.9382477    0.00000       Uiso       1.00
       H36          H  0.3488768  0.4565052  0.0099935    0.00000       Uiso       1.00
      C127          C  0.5310186  0.4361082  0.9753072    0.00000       Uiso       1.00
      C128          C  0.5172901  0.4213925  0.9591163    0.00000       Uiso       1.00
      C129          C  0.5130729  0.4317531  0.9481493    0.00000       Uiso       1.00
      C130          C  0.5403441  0.4617491  0.9802200    0.00000       Uiso       1.00
      C131          C  0.5360553  0.4723547  0.9695372    0.00000       Uiso       1.00
      C132          C  0.5224339  0.4573210  0.9533989    0.00000       Uiso       1.00
       H37          H  0.5512688  0.4735523  0.9921438    0.00000       Uiso       1.00
       H38          H  0.5094432  0.4017989  0.9552866    0.00000       Uiso       1.00
      C133          C  0.5635053  0.4689733  0.7533824    0.00000       Uiso       1.00
      C134          C  0.5684124  0.4596405  0.7647837    0.00000       Uiso       1.00
      C135          C  0.5577318  0.4639303  0.7903624    0.00000       Uiso       1.00
      C136          C  0.5473219  0.4827079  0.7685887    0.00000       Uiso       1.00
      C137          C  0.5363577  0.4869240  0.7941309    0.00000       Uiso       1.00
      C138          C  0.5416009  0.4775593  0.8050872    0.00000       Uiso       1.00
       H39          H  0.5434933  0.4905600  0.7606794    0.00000       Uiso       1.00
       H40          H  0.5803317  0.4487089  0.7537272    0.00000       Uiso       1.00
      C139          C  0.5629342  0.4548707  0.8015743    0.00000       Uiso       1.00
      C140          C  0.5525348  0.4594800  0.8270026    0.00000       Uiso       1.00
      C141          C  0.3897694  0.4370806  0.9139695    0.00000       Uiso       1.00
      C142          C  0.4151968  0.4474826  0.9035501    0.00000       Uiso       1.00
       H41          H  0.3788561  0.4247845  0.9020335    0.00000       Uiso       1.00
       H42          H  0.4232453  0.4429039  0.8838382    0.00000       Uiso       1.00
       H43          H  0.5752311  0.4443192  0.7906578    0.00000       Uiso       1.00
       H44          H  0.5571145  0.4524011  0.8350554    0.00000       Uiso       1.00
      C143          C  0.5321139  0.5809585  0.9298093    0.00000       Uiso       1.00
      C144          C  0.5065283  0.5699044  0.9387395    0.00000       Uiso       1.00
      C145          C  0.4960806  0.5442071  0.9336742    0.00000       Uiso       1.00
      C146          C  0.5471399  0.5662556  0.9161234    0.00000       Uiso       1.00
      C147          C  0.5365268  0.5406767  0.9114690    0.00000       Uiso       1.00
      C148          C  0.5108003  0.5289232  0.9201358    0.00000       Uiso       1.00
       H45          H  0.4704022  0.5074269  0.9601375    0.00000       Uiso       1.00
       H46          H  0.5280126  0.5236281  0.9437476    0.00000       Uiso       1.00
      C149          C  0.4190382  0.4691693  0.9439204    0.00000       Uiso       1.00
      C150          C  0.4337431  0.4852051  0.9589460    0.00000       Uiso       1.00
      C151          C  0.4593230  0.4955184  0.9483331    0.00000       Uiso       1.00
      C152          C  0.4300916  0.4635780  0.9183345    0.00000       Uiso       1.00
      C153          C  0.4557899  0.4737613  0.9078869    0.00000       Uiso       1.00
      C154          C  0.4710757  0.4902163  0.9226062    0.00000       Uiso       1.00
       H47          H  0.4763716  0.5363312  0.9398233    0.00000       Uiso       1.00
       H48          H  0.4925504  0.5112876  0.8822006    0.00000       Uiso       1.00
      C155          C  0.5180036  0.4678820  0.9426367    0.00000       Uiso       1.00
      C156          C  0.5043196  0.4528558  0.9265907    0.00000       Uiso       1.00
      C157          C  0.4996666  0.4634708  0.9162791    0.00000       Uiso       1.00
      C158          C  0.5269346  0.4934698  0.9482403    0.00000       Uiso       1.00
      C159          C  0.5218672  0.5039191  0.9380587    0.00000       Uiso       1.00
      C160          C  0.5083305  0.4891990  0.9215907    0.00000       Uiso       1.00
       H49          H  0.5319247  0.4719707  0.8754760    0.00000       Uiso       1.00
       H50          H  0.5483323  0.5295994  0.9005022    0.00000       Uiso       1.00
      C161          C  0.5308371  0.4819937  0.8308424    0.00000       Uiso       1.00
      C162          C  0.5364349  0.4730592  0.8418973    0.00000       Uiso       1.00
      C163          C  0.5262508  0.4781274  0.8675968    0.00000       Uiso       1.00
      C164          C  0.5147936  0.4956806  0.8455456    0.00000       Uiso       1.00
      C165          C  0.5044782  0.5003327  0.8711253    0.00000       Uiso       1.00
      C166          C  0.5097862  0.4916682  0.8828803    0.00000       Uiso       1.00
       H51          H  0.4887084  0.4516686  0.9043537    0.00000       Uiso       1.00
       H52          H  0.4636652  0.4680850  0.8881769    0.00000       Uiso       1.00
      C167          C  0.5405076  0.5082541  0.9643462    0.00000       Uiso       1.00
      C168          C  0.5451138  0.4978320  0.9747458    0.00000       Uiso       1.00
      C169          C  0.4951701  0.4273886  0.9214237    0.00000       Uiso       1.00
      C170          C  0.4994615  0.4169799  0.9320877    0.00000       Uiso       1.00
      C171          C  0.4917422  0.5847976  0.9523123    0.00000       Uiso       1.00
      C172          C  0.5021605  0.6102263  0.9569198    0.00000       Uiso       1.00
      C173          C  0.5726082  0.5774075  0.9069756    0.00000       Uiso       1.00
      C174          C  0.5830145  0.6027747  0.9112728    0.00000       Uiso       1.00
      C175          C  0.5096288  0.5048313  0.8343935    0.00000       Uiso       1.00
      C176          C  0.5202968  0.5005378  0.8090281    0.00000       Uiso       1.00
      C177          C  0.4225923  0.4903635  0.9844133    0.00000       Uiso       1.00
      C178          C  0.3972263  0.4796986  0.9948189    0.00000       Uiso       1.00
       H53          H  0.4335321  0.5025681  0.9963441    0.00000       Uiso       1.00
       H54          H  0.3892440  0.4839759  0.0144949    0.00000       Uiso       1.00
       H55          H  0.4920497  0.3973026  0.9278027    0.00000       Uiso       1.00
       H56          H  0.4845124  0.4154574  0.9092119    0.00000       Uiso       1.00
       H57          H  0.5475831  0.5279678  0.9689341    0.00000       Uiso       1.00
       H58          H  0.5556584  0.5097671  0.9870504    0.00000       Uiso       1.00
       H59          H  0.6026913  0.6107611  0.9038661    0.00000       Uiso       1.00
       H60          H  0.5845425  0.5664719  0.8963179    0.00000       Uiso       1.00
       H61          H  0.4720308  0.5767484  0.9593869    0.00000       Uiso       1.00
       H62          H  0.4902291  0.6211447  0.9674641    0.00000       Uiso       1.00
       H63          H  0.5160143  0.5079483  0.8010458    0.00000       Uiso       1.00
       H64          H  0.4974148  0.5154869  0.8453317    0.00000       Uiso       1.00
      C179          C  0.9550754  0.7374631  0.5970960    0.00000       Uiso       1.00
      C180          C  0.9532778  0.7247537  0.6096435    0.00000       Uiso       1.00
      C181          C  0.9493489  0.6992701  0.5988648    0.00000       Uiso       1.00
      C182          C  0.9532778  0.7247536  0.5736368    0.00000       Uiso       1.00
      C183          C  0.9495059  0.6993524  0.5627576    0.00000       Uiso       1.00
      C184          C  0.9473185  0.6859438  0.5751540    0.00000       Uiso       1.00
      C185          C  0.0088943  0.4029123  0.5432805    0.00000       Uiso       1.00
      C186          C  0.0214416  0.4263715  0.5414829    0.00000       Uiso       1.00
      C187          C  0.0106920  0.4372509  0.5377106    0.00000       Uiso       1.00
      C188          C  0.9854348  0.3903648  0.5414829    0.00000       Uiso       1.00
      C189          C  0.9746592  0.4011435  0.5375536    0.00000       Uiso       1.00
      C190          C  0.9870753  0.4248540  0.5355225    0.00000       Uiso       1.00
      C191          C  0.0088938  0.4029123  0.2625457    0.00000       Uiso       1.00
      C192          C  0.9854345  0.3903649  0.2752551    0.00000       Uiso       1.00
      C193          C  0.9745561  0.4011130  0.3006566    0.00000       Uiso       1.00
      C194          C  0.0214412  0.4263715  0.2752551    0.00000       Uiso       1.00
      C195          C  0.0106644  0.4371456  0.3007390    0.00000       Uiso       1.00
      C196          C  0.9869540  0.4247282  0.3140654    0.00000       Uiso       1.00
      C197          C  0.6743402  0.4567278  0.5970960    0.00000       Uiso       1.00
      C198          C  0.6870497  0.4585255  0.5736367    0.00000       Uiso       1.00
      C199          C  0.7125332  0.4624543  0.5628608    0.00000       Uiso       1.00
      C200          C  0.6870498  0.4585255  0.6096434    0.00000       Uiso       1.00
      C201          C  0.7124510  0.4622967  0.5988930    0.00000       Uiso       1.00
      C202          C  0.7258591  0.4644839  0.5752758    0.00000       Uiso       1.00
      C203          C  0.9118032  0.5000032  0.5000046    0.00000       Uiso       1.00
       F33          F  0.9552208  0.7379424  0.6346388    0.00000       Uiso       1.00
       F34          F  0.6738608  0.4565824  0.5598870    0.00000       Uiso       1.00
       F35          F  0.0464372  0.4401213  0.5434260    0.00000       Uiso       1.00
       F36          F  0.9716848  0.3653694  0.2620664    0.00000       Uiso       1.00
       F37          F  0.9552208  0.7379423  0.5598870    0.00000       Uiso       1.00
       F38          F  0.9716852  0.3653694  0.5434260    0.00000       Uiso       1.00
       F39          F  0.0464368  0.4401213  0.2620664    0.00000       Uiso       1.00
       F40          F  0.6738609  0.4565825  0.6346388    0.00000       Uiso       1.00
       F41          F  0.9467406  0.6864163  0.6133258    0.00000       Uiso       1.00
       F42          F  0.9482940  0.6869028  0.5374927    0.00000       Uiso       1.00
       F43          F  0.7249003  0.4635091  0.6129211    0.00000       Uiso       1.00
       F44          F  0.7253873  0.4650662  0.5381560    0.00000       Uiso       1.00
       F45          F  0.0247206  0.4625153  0.5364971    0.00000       Uiso       1.00
       F46          F  0.9499534  0.3866798  0.5349436    0.00000       Uiso       1.00
       F47          F  0.0251337  0.4618493  0.3135873    0.00000       Uiso       1.00
       F48          F  0.9492935  0.3870838  0.3131083    0.00000       Uiso       1.00
      C204          C  0.9428285  0.6584211  0.5635081    0.00000       Uiso       1.00
      C205          C  0.9521537  0.6470191  0.5684232    0.00000       Uiso       1.00
      C206          C  0.9478662  0.6214404  0.5577407    0.00000       Uiso       1.00
      C207          C  0.9291006  0.6432151  0.5473179    0.00000       Uiso       1.00
      C208          C  0.9248840  0.6176729  0.5363544    0.00000       Uiso       1.00
      C209          C  0.9342439  0.6067157  0.5416030    0.00000       Uiso       1.00
       H65          H  0.9212526  0.6511234  0.5434837    0.00000       Uiso       1.00
       H66          H  0.9630769  0.6580715  0.5803509    0.00000       Uiso       1.00
      C210          C  0.9756913  0.4365002  0.5310315    0.00000       Uiso       1.00
      C211          C  0.9904039  0.4526820  0.5172946    0.00000       Uiso       1.00
      C212          C  0.9800432  0.4636467  0.5130781    0.00000       Uiso       1.00
      C213          C  0.9500510  0.4315960  0.5403666    0.00000       Uiso       1.00
      C214          C  0.9394450  0.4422796  0.5360792    0.00000       Uiso       1.00
      C215          C  0.9544790  0.4584076  0.5224478    0.00000       Uiso       1.00
       H67          H  0.9382487  0.4196777  0.5512987    0.00000       Uiso       1.00
       H68          H  0.0099950  0.4565088  0.5094390    0.00000       Uiso       1.00
      C216          C  0.9753074  0.4361102  0.3415879    0.00000       Uiso       1.00
      C217          C  0.9591165  0.4213945  0.3567916    0.00000       Uiso       1.00
      C218          C  0.9481494  0.4317551  0.3823362    0.00000       Uiso       1.00
      C219          C  0.9802201  0.4617510  0.3529904    0.00000       Uiso       1.00
      C220          C  0.9695374  0.4723566  0.3785673    0.00000       Uiso       1.00
      C221          C  0.9533991  0.4573230  0.3932934    0.00000       Uiso       1.00
       H69          H  0.9921439  0.4735543  0.3419451    0.00000       Uiso       1.00
       H70          H  0.9552867  0.4018009  0.3488746    0.00000       Uiso       1.00
      C222          C  0.7533816  0.4689742  0.5638897    0.00000       Uiso       1.00
      C223          C  0.7647828  0.4596413  0.5382488    0.00000       Uiso       1.00
      C224          C  0.7903617  0.4639314  0.5276405    0.00000       Uiso       1.00
      C225          C  0.7685881  0.4827089  0.5786012    0.00000       Uiso       1.00
      C226          C  0.7941304  0.4869252  0.5682395    0.00000       Uiso       1.00
      C227          C  0.8050867  0.4775605  0.5426754    0.00000       Uiso       1.00
       H71          H  0.7606788  0.4905609  0.5981910    0.00000       Uiso       1.00
       H72          H  0.7537262  0.4487097  0.5264544    0.00000       Uiso       1.00
      C228          C  0.8015736  0.4548717  0.5021667    0.00000       Uiso       1.00
      C229          C  0.8270022  0.4594812  0.4917471    0.00000       Uiso       1.00
      C230          C  0.9139704  0.4370830  0.5451461    0.00000       Uiso       1.00
      C231          C  0.9035506  0.4474849  0.5405402    0.00000       Uiso       1.00
       H73          H  0.9020342  0.4247869  0.5556993    0.00000       Uiso       1.00
       H74          H  0.8838386  0.4429060  0.5476248    0.00000       Uiso       1.00
       H75          H  0.7906570  0.4443201  0.4902349    0.00000       Uiso       1.00
       H76          H  0.8350549  0.4524023  0.4720359    0.00000       Uiso       1.00
      C232          C  0.9298095  0.5809603  0.5308391    0.00000       Uiso       1.00
      C233          C  0.9387399  0.5699064  0.5364404    0.00000       Uiso       1.00
      C234          C  0.9336745  0.5442091  0.5262564    0.00000       Uiso       1.00
      C235          C  0.9161234  0.5662572  0.5147963    0.00000       Uiso       1.00
      C236          C  0.9114691  0.5406784  0.5044851    0.00000       Uiso       1.00
      C237          C  0.9201360  0.5289250  0.5097912    0.00000       Uiso       1.00
       H77          H  0.9601381  0.5074292  0.4886916    0.00000       Uiso       1.00
       H78          H  0.9437479  0.5236300  0.4636723    0.00000       Uiso       1.00
      C238          C  0.9439212  0.4691718  0.5180151    0.00000       Uiso       1.00
      C239          C  0.9589468  0.4852076  0.5043204    0.00000       Uiso       1.00
      C240          C  0.9483336  0.4955206  0.4996667    0.00000       Uiso       1.00
      C241          C  0.9183351  0.4635803  0.5269563    0.00000       Uiso       1.00
      C242          C  0.9078873  0.4737633  0.5218889    0.00000       Uiso       1.00
      C243          C  0.9226066  0.4902184  0.5083387    0.00000       Uiso       1.00
       H79          H  0.9398238  0.5363334  0.5319405    0.00000       Uiso       1.00
       H80          H  0.8822008  0.5112895  0.5483407    0.00000       Uiso       1.00
      C244          C  0.9426368  0.4678839  0.4190467    0.00000       Uiso       1.00
      C245          C  0.9265908  0.4528577  0.4337504    0.00000       Uiso       1.00
      C246          C  0.9162793  0.4634726  0.4593298    0.00000       Uiso       1.00
      C247          C  0.9482405  0.4934717  0.4300997    0.00000       Uiso       1.00
      C248          C  0.9380589  0.5039210  0.4557978    0.00000       Uiso       1.00
      C249          C  0.9215909  0.4892008  0.4710824    0.00000       Uiso       1.00
       H81          H  0.8754758  0.4719723  0.4763746    0.00000       Uiso       1.00
       H82          H  0.9005022  0.5296010  0.4925691    0.00000       Uiso       1.00
      C250          C  0.8308421  0.4819950  0.5321184    0.00000       Uiso       1.00
      C251          C  0.8418970  0.4730606  0.5065314    0.00000       Uiso       1.00
      C252          C  0.8675967  0.4781290  0.4960843    0.00000       Uiso       1.00
      C253          C  0.8455455  0.4956822  0.5471455    0.00000       Uiso       1.00
      C254          C  0.8711253  0.5003344  0.5365334    0.00000       Uiso       1.00
      C255          C  0.8828803  0.4916699  0.5108060    0.00000       Uiso       1.00
       H83          H  0.9043538  0.4516704  0.4704112    0.00000       Uiso       1.00
       H84          H  0.8881772  0.4680870  0.5280473    0.00000       Uiso       1.00
      C256          C  0.9643463  0.5082559  0.4152050    0.00000       Uiso       1.00
      C257          C  0.9747460  0.4978339  0.3897772    0.00000       Uiso       1.00
      C258          C  0.9214239  0.4273905  0.4225999    0.00000       Uiso       1.00
      C259          C  0.9320878  0.4169818  0.3972359    0.00000       Uiso       1.00
      C260          C  0.9523129  0.5847998  0.5525469    0.00000       Uiso       1.00
      C261          C  0.9569204  0.6102284  0.5629495    0.00000       Uiso       1.00
      C262          C  0.9069756  0.5774090  0.5096276    0.00000       Uiso       1.00
      C263          C  0.9112727  0.6027762  0.5202913    0.00000       Uiso       1.00
      C264          C  0.8343934  0.5048327  0.5726129    0.00000       Uiso       1.00
      C265          C  0.8090278  0.5005391  0.5830168    0.00000       Uiso       1.00
      C266          C  0.9844142  0.4903661  0.4951623    0.00000       Uiso       1.00
      C267          C  0.9948199  0.4797014  0.4994579    0.00000       Uiso       1.00
       H85          H  0.9963450  0.5025706  0.4844964    0.00000       Uiso       1.00
       H86          H  0.0144963  0.4839792  0.4920409    0.00000       Uiso       1.00
       H87          H  0.9278028  0.3973045  0.3892556    0.00000       Uiso       1.00
       H88          H  0.9092120  0.4154593  0.4335381    0.00000       Uiso       1.00
       H89          H  0.9689344  0.5279697  0.4232553    0.00000       Uiso       1.00
       H90          H  0.9870505  0.5097690  0.3788633    0.00000       Uiso       1.00
       H91          H  0.9038659  0.6107624  0.5160075    0.00000       Uiso       1.00
       H92          H  0.8963177  0.5664733  0.4974156    0.00000       Uiso       1.00
       H93          H  0.9593877  0.5767506  0.5571343    0.00000       Uiso       1.00
       H94          H  0.9674649  0.6211469  0.5752549    0.00000       Uiso       1.00
       H95          H  0.8010455  0.5079496  0.6026919    0.00000       Uiso       1.00
       H96          H  0.8453317  0.5154885  0.5845443    0.00000       Uiso       1.00
      C268          C  0.9550751  0.8147087  0.5970956    0.00000       Uiso       1.00
      C269          C  0.9532775  0.8021613  0.5736365    0.00000       Uiso       1.00
      C270          C  0.9493485  0.8129400  0.5628605    0.00000       Uiso       1.00
      C271          C  0.9532774  0.8381678  0.6096430    0.00000       Uiso       1.00
      C272          C  0.9495054  0.8490470  0.5988927    0.00000       Uiso       1.00
      C273          C  0.9473180  0.8366507  0.5752754    0.00000       Uiso       1.00
      C274          C  0.0088923  0.8685259  0.2625432    0.00000       Uiso       1.00
      C275          C  0.0214397  0.8703235  0.2752527    0.00000       Uiso       1.00
      C276          C  0.0106901  0.8740957  0.3006539    0.00000       Uiso       1.00
      C277          C  0.9854329  0.8703234  0.2752526    0.00000       Uiso       1.00
      C278          C  0.9746572  0.8742526  0.3007361    0.00000       Uiso       1.00
      C279          C  0.9870735  0.8762836  0.3140614    0.00000       Uiso       1.00
      C280          C  0.0088904  0.1492589  0.5432770    0.00000       Uiso       1.00
      C281          C  0.9854310  0.1365493  0.5414793    0.00000       Uiso       1.00
      C282          C  0.9745529  0.1111478  0.5377042    0.00000       Uiso       1.00
      C283          C  0.0214379  0.1365495  0.5414795    0.00000       Uiso       1.00
      C284          C  0.0106612  0.1110656  0.5375465    0.00000       Uiso       1.00
      C285          C  0.9869507  0.0977391  0.5355131    0.00000       Uiso       1.00
      C286          C  0.6743389  0.8147074  0.5970943    0.00000       Uiso       1.00
      C287          C  0.6870483  0.8381665  0.6096417    0.00000       Uiso       1.00
      C288          C  0.7125319  0.8489427  0.5988629    0.00000       Uiso       1.00
      C289          C  0.6870484  0.8021601  0.5736351    0.00000       Uiso       1.00
      C290          C  0.7124497  0.8129106  0.5627555    0.00000       Uiso       1.00
      C291          C  0.7258578  0.8365278  0.5751519    0.00000       Uiso       1.00
      C292          C  0.9118016  0.9118003  0.4999995    0.00000       Uiso       1.00
       F49          F  0.9552206  0.7771659  0.5598869    0.00000       Uiso       1.00
       F50          F  0.6738595  0.8519161  0.6346369    0.00000       Uiso       1.00
       F51          F  0.0464353  0.8683807  0.2620640    0.00000       Uiso       1.00
       F52          F  0.9716812  0.1497380  0.5434222    0.00000       Uiso       1.00
       F53          F  0.9552205  0.8519174  0.6346384    0.00000       Uiso       1.00
       F54          F  0.9716831  0.8683803  0.2620637    0.00000       Uiso       1.00
       F55          F  0.0464335  0.1497384  0.5434226    0.00000       Uiso       1.00
       F56          F  0.6738597  0.7771646  0.5598855    0.00000       Uiso       1.00
       F57          F  0.9467400  0.7984791  0.5381542    0.00000       Uiso       1.00
       F58          F  0.9482934  0.8743120  0.6129200    0.00000       Uiso       1.00
       F59          F  0.7248991  0.7988827  0.5374908    0.00000       Uiso       1.00
       F60          F  0.7253859  0.8736475  0.6133255    0.00000       Uiso       1.00
       F61          F  0.0247189  0.8753092  0.3131031    0.00000       Uiso       1.00
       F62          F  0.9499514  0.8768622  0.3135878    0.00000       Uiso       1.00
       F63          F  0.0251306  0.0982174  0.5349327    0.00000       Uiso       1.00
       F64          F  0.9492901  0.0986960  0.5364860    0.00000       Uiso       1.00
      C293          C  0.9428278  0.8482966  0.5638885    0.00000       Uiso       1.00
      C294          C  0.9521531  0.8433817  0.5382463    0.00000       Uiso       1.00
      C295          C  0.9478653  0.8540643  0.5276377    0.00000       Uiso       1.00
      C296          C  0.9290999  0.8644868  0.5786003    0.00000       Uiso       1.00
      C297          C  0.9248831  0.8754503  0.5682383    0.00000       Uiso       1.00
      C298          C  0.9342430  0.8702019  0.5426729    0.00000       Uiso       1.00
       H97          H  0.9212519  0.8683209  0.5981908    0.00000       Uiso       1.00
       H98          H  0.9630762  0.8314542  0.5264480    0.00000       Uiso       1.00
      C299          C  0.9756895  0.8807744  0.3415825    0.00000       Uiso       1.00
      C300          C  0.9904021  0.8945113  0.3567886    0.00000       Uiso       1.00
      C301          C  0.9800414  0.8987277  0.3823304    0.00000       Uiso       1.00
      C302          C  0.9500492  0.8714391  0.3529834    0.00000       Uiso       1.00
      C303          C  0.9394431  0.8757264  0.3785604    0.00000       Uiso       1.00
      C304          C  0.9544773  0.8893579  0.3932857    0.00000       Uiso       1.00
       H99          H  0.9382470  0.8605071  0.3419353    0.00000       Uiso       1.00
      H100          H  0.0099932  0.9023671  0.3488802    0.00000       Uiso       1.00
      C305          C  0.9753043  0.0702166  0.5310190    0.00000       Uiso       1.00
      C306          C  0.9591133  0.0550128  0.5172907    0.00000       Uiso       1.00
      C307          C  0.9481464  0.0294682  0.5130736    0.00000       Uiso       1.00
      C308          C  0.9802172  0.0588140  0.5403447    0.00000       Uiso       1.00
      C309          C  0.9695345  0.0332370  0.5360560    0.00000       Uiso       1.00
      C310          C  0.9533962  0.0185110  0.5224347    0.00000       Uiso       1.00
      H101          H  0.9921410  0.0698593  0.5512693    0.00000       Uiso       1.00
      H102          H  0.9552835  0.0629298  0.5094437    0.00000       Uiso       1.00
      C311          C  0.7533803  0.8479141  0.5635059    0.00000       Uiso       1.00
      C312          C  0.7647813  0.8735551  0.5684128    0.00000       Uiso       1.00
      C313          C  0.7903602  0.8841636  0.5577325    0.00000       Uiso       1.00
      C314          C  0.7685868  0.8332028  0.5473229    0.00000       Uiso       1.00
      C315          C  0.7941290  0.8435647  0.5363588    0.00000       Uiso       1.00
      C316          C  0.8050852  0.8691288  0.5416018    0.00000       Uiso       1.00
      H103          H  0.7606775  0.8136129  0.5434944    0.00000       Uiso       1.00
      H104          H  0.7537248  0.8853494  0.5803320    0.00000       Uiso       1.00
      C317          C  0.8015720  0.9096375  0.5629348    0.00000       Uiso       1.00
      C318          C  0.8270006  0.9200572  0.5525354    0.00000       Uiso       1.00
      C319          C  0.9139685  0.8666593  0.3897713    0.00000       Uiso       1.00
      C320          C  0.9035490  0.8712651  0.4151986    0.00000       Uiso       1.00
      H105          H  0.9020324  0.8561060  0.3788581    0.00000       Uiso       1.00
      H106          H  0.8838369  0.8641803  0.4232470    0.00000       Uiso       1.00
      H107          H  0.7906553  0.9215692  0.5752314    0.00000       Uiso       1.00
      H108          H  0.8350532  0.9397684  0.5571150    0.00000       Uiso       1.00
      C321          C  0.9298084  0.8809658  0.5321157    0.00000       Uiso       1.00
      C322          C  0.9387388  0.8753646  0.5065303    0.00000       Uiso       1.00
      C323          C  0.9336733  0.8855487  0.4960824    0.00000       Uiso       1.00
      C324          C  0.9161223  0.8970085  0.5471414    0.00000       Uiso       1.00
      C325          C  0.9114678  0.9073198  0.5365282    0.00000       Uiso       1.00
      C326          C  0.9201347  0.9020138  0.5108019    0.00000       Uiso       1.00
      H109          H  0.9601365  0.9231138  0.4704039    0.00000       Uiso       1.00
      H110          H  0.9437463  0.9481327  0.5280139    0.00000       Uiso       1.00
      C327          C  0.9439195  0.8937903  0.4190401    0.00000       Uiso       1.00
      C328          C  0.9589452  0.9074851  0.4337450    0.00000       Uiso       1.00
      C329          C  0.9483320  0.9121386  0.4593247    0.00000       Uiso       1.00
      C330          C  0.9183334  0.8848490  0.4300933    0.00000       Uiso       1.00
      C331          C  0.9078857  0.8899162  0.4557915    0.00000       Uiso       1.00
      C332          C  0.9226051  0.9034664  0.4710773    0.00000       Uiso       1.00
      H111          H  0.9398225  0.8798648  0.4763735    0.00000       Uiso       1.00
      H112          H  0.8821994  0.8634641  0.4925520    0.00000       Uiso       1.00
      C333          C  0.9426350  0.9927584  0.5180045    0.00000       Uiso       1.00
      C334          C  0.9265890  0.9780546  0.5043205    0.00000       Uiso       1.00
      C335          C  0.9162775  0.9524752  0.4996676    0.00000       Uiso       1.00
      C336          C  0.9482388  0.9817054  0.5269356    0.00000       Uiso       1.00
      C337          C  0.9380573  0.9560072  0.5218684    0.00000       Uiso       1.00
      C338          C  0.9215892  0.9407226  0.5083317    0.00000       Uiso       1.00
      H113          H  0.8754742  0.9354300  0.5319256    0.00000       Uiso       1.00
      H114          H  0.9005008  0.9192356  0.5483335    0.00000       Uiso       1.00
      C339          C  0.8308407  0.8796859  0.5308381    0.00000       Uiso       1.00
      C340          C  0.8418955  0.9052730  0.5364358    0.00000       Uiso       1.00
      C341          C  0.8675951  0.9157204  0.5262519    0.00000       Uiso       1.00
      C342          C  0.8455442  0.8646590  0.5147948    0.00000       Uiso       1.00
      C343          C  0.8711239  0.8752713  0.5044796    0.00000       Uiso       1.00
      C344          C  0.8828788  0.9009987  0.5097875    0.00000       Uiso       1.00
      H115          H  0.9043520  0.9413938  0.4887095    0.00000       Uiso       1.00
      H116          H  0.8881756  0.8837577  0.4636666    0.00000       Uiso       1.00
      C345          C  0.9643447  0.9966001  0.5405086    0.00000       Uiso       1.00
      C346          C  0.9747432  0.0220271  0.5451147    0.00000       Uiso       1.00
      C347          C  0.9214219  0.9892052  0.4951708    0.00000       Uiso       1.00
      C348          C  0.9320848  0.0145684  0.4994622    0.00000       Uiso       1.00
      C349          C  0.9523118  0.8592582  0.4917443    0.00000       Uiso       1.00
      C350          C  0.9569195  0.8488556  0.5021628    0.00000       Uiso       1.00
      C351          C  0.9069744  0.9021770  0.5726095    0.00000       Uiso       1.00
      C352          C  0.9112717  0.8915133  0.5830159    0.00000       Uiso       1.00
      C353          C  0.8343921  0.8391916  0.5096302    0.00000       Uiso       1.00
      C354          C  0.8090265  0.8287876  0.5202981    0.00000       Uiso       1.00
      C355          C  0.9844127  0.9166433  0.4225943    0.00000       Uiso       1.00
      C356          C  0.9948183  0.9123479  0.3972284    0.00000       Uiso       1.00
      H117          H  0.9963434  0.9273093  0.4335341    0.00000       Uiso       1.00
      H118          H  0.0144945  0.9197651  0.3892472    0.00000       Uiso       1.00
      H119          H  0.9277997  0.0225488  0.4920503    0.00000       Uiso       1.00
      H120          H  0.9092099  0.9782669  0.4845133    0.00000       Uiso       1.00
      H121          H  0.9689327  0.9885498  0.5475842    0.00000       Uiso       1.00
      H122          H  0.9870479  0.0329410  0.5556592    0.00000       Uiso       1.00
      H123          H  0.9038650  0.8957970  0.6026927    0.00000       Uiso       1.00
      H124          H  0.8963165  0.9143889  0.5845436    0.00000       Uiso       1.00
      H125          H  0.9593866  0.8546709  0.4720331    0.00000       Uiso       1.00
      H126          H  0.9674640  0.8365503  0.4902315    0.00000       Uiso       1.00
      H127          H  0.8010443  0.8091124  0.5160158    0.00000       Uiso       1.00
      H128          H  0.8453304  0.8272603  0.4974164    0.00000       Uiso       1.00
      C357          C  0.5970930  0.8147070  0.9550747    0.00000       Uiso       1.00
      C358          C  0.6096404  0.8381663  0.9532771    0.00000       Uiso       1.00
      C359          C  0.5988615  0.8489420  0.9493480    0.00000       Uiso       1.00
      C360          C  0.5736336  0.8021596  0.9532771    0.00000       Uiso       1.00
      C361          C  0.5627543  0.8129096  0.9495050    0.00000       Uiso       1.00
      C362          C  0.5751506  0.8365270  0.9473175    0.00000       Uiso       1.00
      C363          C  0.5432723  0.1492566  0.0088902    0.00000       Uiso       1.00
      C364          C  0.5414748  0.1365471  0.0214376    0.00000       Uiso       1.00
      C365          C  0.5377026  0.1111460  0.0106882    0.00000       Uiso       1.00
      C366          C  0.5414757  0.1365477  0.9854311    0.00000       Uiso       1.00
      C367          C  0.5375466  0.1110641  0.9746556    0.00000       Uiso       1.00
      C368          C  0.5355155  0.0977389  0.9870718    0.00000       Uiso       1.00
      C369          C  0.2625381  0.8685220  0.0088900    0.00000       Uiso       1.00
      C370          C  0.2752486  0.8703202  0.9854310    0.00000       Uiso       1.00
      C371          C  0.3006503  0.8740954  0.9745528    0.00000       Uiso       1.00
      C372          C  0.2752477  0.8703197  0.0214375    0.00000       Uiso       1.00
      C373          C  0.3007318  0.8742529  0.0106608    0.00000       Uiso       1.00
      C374          C  0.3140591  0.8762868  0.9869506    0.00000       Uiso       1.00
      C375          C  0.5970926  0.8147070  0.6743399    0.00000       Uiso       1.00
      C376          C  0.5736334  0.8021595  0.6870493    0.00000       Uiso       1.00
      C377          C  0.5628573  0.8129383  0.7125327    0.00000       Uiso       1.00
      C378          C  0.6096401  0.8381662  0.6870493    0.00000       Uiso       1.00
      C379          C  0.5988895  0.8490458  0.7124504    0.00000       Uiso       1.00
      C380          C  0.5752721  0.8366494  0.7258584    0.00000       Uiso       1.00
      C381          C  0.4999998  0.9118016  0.9118010    0.00000       Uiso       1.00
       F65          F  0.6346359  0.8519161  0.9552202    0.00000       Uiso       1.00
       F66          F  0.5598837  0.7771640  0.6738605    0.00000       Uiso       1.00
       F67          F  0.5434178  0.1497359  0.0464331    0.00000       Uiso       1.00
       F68          F  0.2620597  0.8683771  0.9716812    0.00000       Uiso       1.00
       F69          F  0.5598840  0.7771641  0.9552202    0.00000       Uiso       1.00
       F70          F  0.5434186  0.1497364  0.9716813    0.00000       Uiso       1.00
       F71          F  0.2620588  0.8683766  0.0464329    0.00000       Uiso       1.00
       F72          F  0.6346356  0.8519160  0.6738605    0.00000       Uiso       1.00
       F73          F  0.6133224  0.8736483  0.9467395    0.00000       Uiso       1.00
       F74          F  0.5374892  0.7988822  0.9482931    0.00000       Uiso       1.00
       F75          F  0.6129174  0.8743106  0.7248995    0.00000       Uiso       1.00
       F76          F  0.5381523  0.7984754  0.7253866    0.00000       Uiso       1.00
       F77          F  0.5364893  0.0986969  0.0247169    0.00000       Uiso       1.00
       F78          F  0.5349367  0.0982123  0.9499500    0.00000       Uiso       1.00
       F79          F  0.3135801  0.8768668  0.0251302    0.00000       Uiso       1.00
       F80          F  0.3131020  0.8753137  0.9492902    0.00000       Uiso       1.00
      C382          C  0.5635045  0.8479137  0.9428274    0.00000       Uiso       1.00
      C383          C  0.5684195  0.8735559  0.9521524    0.00000       Uiso       1.00
      C384          C  0.5577368  0.8841643  0.9478647    0.00000       Uiso       1.00
      C385          C  0.5473142  0.8332016  0.9290995    0.00000       Uiso       1.00
      C386          C  0.5363505  0.8435636  0.9248827    0.00000       Uiso       1.00
      C387          C  0.5415990  0.8691289  0.9342424    0.00000       Uiso       1.00
      H129          H  0.5434801  0.8136112  0.9212517    0.00000       Uiso       1.00
      H130          H  0.5803471  0.8853543  0.9630755    0.00000       Uiso       1.00
      C388          C  0.5310248  0.0702178  0.9756879    0.00000       Uiso       1.00
      C389          C  0.5172879  0.0550117  0.9904006    0.00000       Uiso       1.00
      C390          C  0.5130715  0.0294699  0.9800400    0.00000       Uiso       1.00
      C391          C  0.5403600  0.0588170  0.9500479    0.00000       Uiso       1.00
      C392          C  0.5360728  0.0332399  0.9394420    0.00000       Uiso       1.00
      C393          C  0.5224413  0.0185147  0.9544761    0.00000       Uiso       1.00
      H131          H  0.5512921  0.0698650  0.9382456    0.00000       Uiso       1.00
      H132          H  0.5094311  0.0629196  0.0099914    0.00000       Uiso       1.00
      C394          C  0.3415818  0.8807810  0.9753043    0.00000       Uiso       1.00
      C395          C  0.3567856  0.8945095  0.9591133    0.00000       Uiso       1.00
      C396          C  0.3823304  0.8987266  0.9481465    0.00000       Uiso       1.00
      C397          C  0.3529845  0.8714556  0.9802172    0.00000       Uiso       1.00
      C398          C  0.3785616  0.8757444  0.9695346    0.00000       Uiso       1.00
      C399          C  0.3932877  0.8893657  0.9533963    0.00000       Uiso       1.00
      H133          H  0.3419393  0.8605309  0.9921409    0.00000       Uiso       1.00
      H134          H  0.3488685  0.9023563  0.9552835    0.00000       Uiso       1.00
      C400          C  0.5638859  0.8482953  0.7533807    0.00000       Uiso       1.00
      C401          C  0.5382448  0.8433882  0.7647817    0.00000       Uiso       1.00
      C402          C  0.5276363  0.8540686  0.7903604    0.00000       Uiso       1.00
      C403          C  0.5785974  0.8644785  0.7685871    0.00000       Uiso       1.00
      C404          C  0.5682355  0.8754426  0.7941292    0.00000       Uiso       1.00
      C405          C  0.5426712  0.8701993  0.8050854    0.00000       Uiso       1.00
      H135          H  0.5981873  0.8683071  0.7606779    0.00000       Uiso       1.00
      H136          H  0.5264503  0.8314689  0.7537252    0.00000       Uiso       1.00
      C406          C  0.5021623  0.8488661  0.8015721    0.00000       Uiso       1.00
      C407          C  0.4917426  0.8592654  0.8270005    0.00000       Uiso       1.00
      C408          C  0.5451398  0.0220290  0.9139675    0.00000       Uiso       1.00
      C409          C  0.5405350  0.9966026  0.9035481    0.00000       Uiso       1.00
      H137          H  0.5556930  0.0329423  0.9020315    0.00000       Uiso       1.00
      H138          H  0.5476198  0.9885542  0.8838362    0.00000       Uiso       1.00
      H139          H  0.4902305  0.8365693  0.7906556    0.00000       Uiso       1.00
      H140          H  0.4720312  0.8546857  0.8350531    0.00000       Uiso       1.00
      C410          C  0.5308348  0.8796859  0.9298079    0.00000       Uiso       1.00
      C411          C  0.5364360  0.9052714  0.9387380    0.00000       Uiso       1.00
      C412          C  0.5262519  0.9157192  0.9336725    0.00000       Uiso       1.00
      C413          C  0.5147920  0.8646601  0.9161218    0.00000       Uiso       1.00
      C414          C  0.5044805  0.8752732  0.9114674    0.00000       Uiso       1.00
      C415          C  0.5097865  0.9009995  0.9201341    0.00000       Uiso       1.00
      H141          H  0.4886865  0.9413972  0.9601355    0.00000       Uiso       1.00
      H142          H  0.4636675  0.8837872  0.9437456    0.00000       Uiso       1.00
      C416          C  0.5180098  0.9927611  0.9439184    0.00000       Uiso       1.00
      C417          C  0.5043151  0.9780561  0.9589440    0.00000       Uiso       1.00
      C418          C  0.4996615  0.9524764  0.9483311    0.00000       Uiso       1.00
      C419          C  0.5269512  0.9817078  0.9183325    0.00000       Uiso       1.00
      C420          C  0.5218838  0.9560096  0.9078849    0.00000       Uiso       1.00
      C421          C  0.5083338  0.9407238  0.9226043    0.00000       Uiso       1.00
      H143          H  0.5319358  0.9354280  0.9398217    0.00000       Uiso       1.00
      H144          H  0.5483363  0.9192494  0.8821990    0.00000       Uiso       1.00
      C422          C  0.4190413  0.8937961  0.9426342    0.00000       Uiso       1.00
      C423          C  0.4337450  0.9074801  0.9265882    0.00000       Uiso       1.00
      C424          C  0.4593245  0.9121331  0.9162768    0.00000       Uiso       1.00
      C425          C  0.4300945  0.8848652  0.9482381    0.00000       Uiso       1.00
      C426          C  0.4557928  0.8899326  0.9380565    0.00000       Uiso       1.00
      C427          C  0.4710774  0.9034693  0.9215885    0.00000       Uiso       1.00
      H145          H  0.4763698  0.8798753  0.8754739    0.00000       Uiso       1.00
      H146          H  0.4925646  0.8634676  0.9005004    0.00000       Uiso       1.00
      C428          C  0.5321141  0.8809631  0.8308406    0.00000       Uiso       1.00
      C429          C  0.5065269  0.8753652  0.8418953    0.00000       Uiso       1.00
      C430          C  0.4960796  0.8855492  0.8675948    0.00000       Uiso       1.00
      C431          C  0.5471412  0.8970065  0.8455440    0.00000       Uiso       1.00
      C432          C  0.5365289  0.9073218  0.8711235    0.00000       Uiso       1.00
      C433          C  0.5108013  0.9020137  0.8828784    0.00000       Uiso       1.00
      H147          H  0.4704060  0.9230912  0.9043514    0.00000       Uiso       1.00
      H148          H  0.5280424  0.9481345  0.8881750    0.00000       Uiso       1.00
      C434          C  0.4151998  0.8712922  0.9643439    0.00000       Uiso       1.00
      C435          C  0.3897718  0.8666859  0.9747434    0.00000       Uiso       1.00
      C436          C  0.4225943  0.9166296  0.9214211    0.00000       Uiso       1.00
      C437          C  0.3972301  0.9123381  0.9320849    0.00000       Uiso       1.00
      C438          C  0.5525425  0.9200575  0.9523110    0.00000       Uiso       1.00
      C439          C  0.5629454  0.9096392  0.9569187    0.00000       Uiso       1.00
      C440          C  0.5096235  0.8391920  0.9069741    0.00000       Uiso       1.00
      C441          C  0.5202873  0.8287857  0.9112715    0.00000       Uiso       1.00
      C442          C  0.5726088  0.9021713  0.8343919    0.00000       Uiso       1.00
      C443          C  0.5830128  0.8915034  0.8090265    0.00000       Uiso       1.00
      C444          C  0.4951569  0.9892069  0.9844113    0.00000       Uiso       1.00
      C445          C  0.4994514  0.0145719  0.9948169    0.00000       Uiso       1.00
      H149          H  0.4844909  0.9782671  0.9963421    0.00000       Uiso       1.00
      H150          H  0.4920332  0.0225526  0.0144929    0.00000       Uiso       1.00
      H151          H  0.3892496  0.9197499  0.9277998    0.00000       Uiso       1.00
      H152          H  0.4335326  0.9272872  0.9092092    0.00000       Uiso       1.00
      H153          H  0.4232501  0.8642167  0.9689320    0.00000       Uiso       1.00
      H154          H  0.3788579  0.8561414  0.9870479    0.00000       Uiso       1.00
      H155          H  0.5160037  0.8091090  0.9038648    0.00000       Uiso       1.00
      H156          H  0.4974115  0.8272578  0.8963163    0.00000       Uiso       1.00
      H157          H  0.5571299  0.9397687  0.9593857    0.00000       Uiso       1.00
      H158          H  0.5752508  0.9215706  0.9674631    0.00000       Uiso       1.00
      H159          H  0.6026881  0.8957859  0.8010444    0.00000       Uiso       1.00
      H160          H  0.5845401  0.9143852  0.8453302    0.00000       Uiso       1.00
      C446          C  0.9550752  0.8147087  0.6743414    0.00000       Uiso       1.00
      C447          C  0.9532775  0.8381678  0.6870508    0.00000       Uiso       1.00
      C448          C  0.9493485  0.8489437  0.7125343    0.00000       Uiso       1.00
      C449          C  0.9532777  0.8021613  0.6870509    0.00000       Uiso       1.00
      C450          C  0.9495056  0.8129114  0.7124522    0.00000       Uiso       1.00
      C451          C  0.9473181  0.8365288  0.7258607    0.00000       Uiso       1.00
      C452          C  0.0088901  0.1492589  0.0088924    0.00000       Uiso       1.00
      C453          C  0.0214385  0.1365500  0.9854333    0.00000       Uiso       1.00
      C454          C  0.0106890  0.1111489  0.9745539    0.00000       Uiso       1.00
      C455          C  0.9854307  0.1365493  0.0214397    0.00000       Uiso       1.00
      C456          C  0.9746552  0.1110658  0.0106610    0.00000       Uiso       1.00
      C457          C  0.9870725  0.0977411  0.9869507    0.00000       Uiso       1.00
      C458          C  0.0088919  0.8685257  0.0088936    0.00000       Uiso       1.00
      C459          C  0.9854325  0.8703232  0.0214408    0.00000       Uiso       1.00
      C460          C  0.9745542  0.8740983  0.0106926    0.00000       Uiso       1.00
      C461          C  0.0214403  0.8703239  0.9854344    0.00000       Uiso       1.00
      C462          C  0.0106634  0.8742569  0.9746603    0.00000       Uiso       1.00
      C463          C  0.9869530  0.8762901  0.9870774    0.00000       Uiso       1.00
      C464          C  0.6743392  0.8147075  0.9550751    0.00000       Uiso       1.00
      C465          C  0.6870488  0.8021602  0.9532776    0.00000       Uiso       1.00
      C466          C  0.7125324  0.8129391  0.9493490    0.00000       Uiso       1.00
      C467          C  0.6870487  0.8381667  0.9532773    0.00000       Uiso       1.00
      C468          C  0.7124500  0.8490465  0.9495064    0.00000       Uiso       1.00
      C469          C  0.7258582  0.8366501  0.9473193    0.00000       Uiso       1.00
      C470          C  0.9118021  0.9118037  0.9118013    0.00000       Uiso       1.00
       F81          F  0.9552205  0.8519176  0.6738619    0.00000       Uiso       1.00
       F82          F  0.6738601  0.7771648  0.9552206    0.00000       Uiso       1.00
       F83          F  0.0464341  0.1497389  0.9716837    0.00000       Uiso       1.00
       F84          F  0.9716828  0.8683801  0.0464363    0.00000       Uiso       1.00
       F85          F  0.9552208  0.7771660  0.6738623    0.00000       Uiso       1.00
       F86          F  0.9716809  0.1497380  0.0464351    0.00000       Uiso       1.00
       F87          F  0.0464359  0.8683810  0.9716848    0.00000       Uiso       1.00
       F88          F  0.6738598  0.8519163  0.9552203    0.00000       Uiso       1.00
       F89          F  0.9467400  0.8736499  0.7253880    0.00000       Uiso       1.00
       F90          F  0.9482938  0.7988841  0.7249019    0.00000       Uiso       1.00
       F91          F  0.7248992  0.8743113  0.9482940    0.00000       Uiso       1.00
       F92          F  0.7253865  0.7984765  0.9467373    0.00000       Uiso       1.00
       F93          F  0.0247177  0.0986998  0.9492896    0.00000       Uiso       1.00
       F94          F  0.9499494  0.0982138  0.0251246    0.00000       Uiso       1.00
       F95          F  0.0251328  0.8768709  0.9499566    0.00000       Uiso       1.00
       F96          F  0.9492915  0.8753164  0.0247216    0.00000       Uiso       1.00
      C471          C  0.9428281  0.8479155  0.7533834    0.00000       Uiso       1.00
      C472          C  0.9521531  0.8735577  0.7647855    0.00000       Uiso       1.00
      C473          C  0.9478654  0.8841662  0.7903642    0.00000       Uiso       1.00
      C474          C  0.9291002  0.8332034  0.7685895    0.00000       Uiso       1.00
      C475          C  0.9248835  0.8435655  0.7941317    0.00000       Uiso       1.00
      C476          C  0.9342432  0.8691308  0.8050888    0.00000       Uiso       1.00
      H161          H  0.9212523  0.8136130  0.7606811    0.00000       Uiso       1.00
      H162          H  0.9630762  0.8853561  0.7537330    0.00000       Uiso       1.00
      C477          C  0.9756885  0.0702200  0.9753044    0.00000       Uiso       1.00
      C478          C  0.9904012  0.0550140  0.9591228    0.00000       Uiso       1.00
      C479          C  0.9800406  0.0294722  0.9481581    0.00000       Uiso       1.00
      C480          C  0.9500481  0.0588190  0.9802085    0.00000       Uiso       1.00
      C481          C  0.9394422  0.0332419  0.9695249    0.00000       Uiso       1.00
      C482          C  0.9544764  0.0185168  0.9533970    0.00000       Uiso       1.00
      H163          H  0.9382458  0.0698670  0.9921266    0.00000       Uiso       1.00
      H164          H  0.0099923  0.0629226  0.9552961    0.00000       Uiso       1.00
      C483          C  0.9753065  0.8807842  0.9756953    0.00000       Uiso       1.00
      C484          C  0.9591153  0.8945125  0.9904109    0.00000       Uiso       1.00
      C485          C  0.9481484  0.8987295  0.9800501    0.00000       Uiso       1.00
      C486          C  0.9802192  0.8714586  0.9500544    0.00000       Uiso       1.00
      C487          C  0.9695365  0.8757474  0.9394488    0.00000       Uiso       1.00
      C488          C  0.9533980  0.8893685  0.9544822    0.00000       Uiso       1.00
      H165          H  0.9921431  0.8605341  0.9382513    0.00000       Uiso       1.00
      H166          H  0.9552845  0.9023588  0.0100044    0.00000       Uiso       1.00
      C489          C  0.7533806  0.8482963  0.9428293    0.00000       Uiso       1.00
      C490          C  0.7647818  0.8433893  0.9521623    0.00000       Uiso       1.00
      C491          C  0.7903607  0.8540699  0.9478724    0.00000       Uiso       1.00
      C492          C  0.7685871  0.8644795  0.9290945    0.00000       Uiso       1.00
      C493          C  0.7941293  0.8754438  0.9248785    0.00000       Uiso       1.00
      C494          C  0.8050857  0.8702007  0.9342433    0.00000       Uiso       1.00
      H167          H  0.7606777  0.8683079  0.9212424    0.00000       Uiso       1.00
      H168          H  0.7537253  0.8314701  0.9630939    0.00000       Uiso       1.00
      C495          C  0.8015726  0.8488677  0.9569322    0.00000       Uiso       1.00
      C496          C  0.8270012  0.8592672  0.9523229    0.00000       Uiso       1.00
      C497          C  0.9139675  0.0220309  0.9747213    0.00000       Uiso       1.00
      C498          C  0.9035490  0.9966044  0.9643193    0.00000       Uiso       1.00
      H169          H  0.9020314  0.0329440  0.9870173    0.00000       Uiso       1.00
      H170          H  0.8838370  0.9885558  0.9688981    0.00000       Uiso       1.00
      H171          H  0.7906560  0.8365709  0.9674838    0.00000       Uiso       1.00
      H172          H  0.8350539  0.8546876  0.9594019    0.00000       Uiso       1.00
      C499          C  0.9298088  0.8796879  0.8308443    0.00000       Uiso       1.00
      C500          C  0.9387390  0.9052733  0.8418982    0.00000       Uiso       1.00
      C501          C  0.9336735  0.9157211  0.8675954    0.00000       Uiso       1.00
      C502          C  0.9161227  0.8646621  0.8455473    0.00000       Uiso       1.00
      C503          C  0.9114683  0.8752751  0.8711261    0.00000       Uiso       1.00
      C504          C  0.9201351  0.9010015  0.8828796    0.00000       Uiso       1.00
      H173          H  0.9601370  0.9413995  0.9043757    0.00000       Uiso       1.00
      H174          H  0.9437470  0.8837895  0.8881749    0.00000       Uiso       1.00
      C505          C  0.9439197  0.9927632  0.9426328    0.00000       Uiso       1.00
      C506          C  0.9589453  0.9780584  0.9265972    0.00000       Uiso       1.00
      C507          C  0.9483324  0.9524786  0.9162841    0.00000       Uiso       1.00
      C508          C  0.9183336  0.9817098  0.9482242    0.00000       Uiso       1.00
      C509          C  0.9078859  0.9560115  0.9380410    0.00000       Uiso       1.00
      C510          C  0.9226055  0.9407259  0.9215861    0.00000       Uiso       1.00
      H175          H  0.9398227  0.9354300  0.8754712    0.00000       Uiso       1.00
      H176          H  0.8821996  0.9192511  0.9005147    0.00000       Uiso       1.00
      C511          C  0.9426358  0.8937986  0.9439211    0.00000       Uiso       1.00
      C512          C  0.9265897  0.9074825  0.9589472    0.00000       Uiso       1.00
      C513          C  0.9162782  0.9121354  0.9483321    0.00000       Uiso       1.00
      C514          C  0.9482396  0.8848677  0.9183334    0.00000       Uiso       1.00
      C515          C  0.9380580  0.8899350  0.9078839    0.00000       Uiso       1.00
      C516          C  0.9215897  0.9034715  0.9226039    0.00000       Uiso       1.00
      H177          H  0.8754748  0.8798773  0.9398322    0.00000       Uiso       1.00
      H178          H  0.9005013  0.8634697  0.8822036    0.00000       Uiso       1.00
      C517          C  0.8308411  0.8809646  0.9298089    0.00000       Uiso       1.00
      C518          C  0.8418960  0.8753669  0.9387435    0.00000       Uiso       1.00
      C519          C  0.8675956  0.8855510  0.9336753    0.00000       Uiso       1.00
      C520          C  0.8455445  0.8970080  0.9161218    0.00000       Uiso       1.00
      C521          C  0.8711241  0.9073234  0.9114698    0.00000       Uiso       1.00
      C522          C  0.8828792  0.9020154  0.9201344    0.00000       Uiso       1.00
      H179          H  0.9043525  0.9230934  0.9601341    0.00000       Uiso       1.00
      H180          H  0.8881758  0.9481363  0.9437173    0.00000       Uiso       1.00
      C523          C  0.9643456  0.8712948  0.9035493    0.00000       Uiso       1.00
      C524          C  0.9747452  0.8666887  0.9139715    0.00000       Uiso       1.00
      C525          C  0.9214227  0.9166321  0.9844144    0.00000       Uiso       1.00
      C526          C  0.9320866  0.9123408  0.9948232    0.00000       Uiso       1.00
      C527          C  0.9523119  0.9200594  0.8270048    0.00000       Uiso       1.00
      C528          C  0.9569196  0.9096411  0.8015762    0.00000       Uiso       1.00
      C529          C  0.9069750  0.8391939  0.8343955    0.00000       Uiso       1.00
      C530          C  0.9112722  0.8287876  0.8090283    0.00000       Uiso       1.00
      C531          C  0.8343922  0.9021726  0.9069711    0.00000       Uiso       1.00
      C532          C  0.8090267  0.8915046  0.9112646    0.00000       Uiso       1.00
      C533          C  0.9844129  0.9892093  0.9214388    0.00000       Uiso       1.00
      C534          C  0.9948176  0.0145743  0.9321035    0.00000       Uiso       1.00
      H181          H  0.9963437  0.9782696  0.9092343    0.00000       Uiso       1.00
      H182          H  0.0144938  0.0225556  0.9278258    0.00000       Uiso       1.00
      H183          H  0.9278005  0.9197520  0.0145004    0.00000       Uiso       1.00
      H184          H  0.9092107  0.9272896  0.9963455    0.00000       Uiso       1.00
      H185          H  0.9689336  0.8642194  0.8838355    0.00000       Uiso       1.00
      H186          H  0.9870498  0.8561444  0.9020365    0.00000       Uiso       1.00
      H187          H  0.9038655  0.8091109  0.8010421    0.00000       Uiso       1.00
      H188          H  0.8963171  0.8272597  0.8453313    0.00000       Uiso       1.00
      H189          H  0.9593866  0.9397707  0.8350540    0.00000       Uiso       1.00
      H190          H  0.9674640  0.9215725  0.7906577    0.00000       Uiso       1.00
      H191          H  0.8010444  0.8957869  0.9038540    0.00000       Uiso       1.00
      H192          H  0.8453305  0.9143865  0.8963154    0.00000       Uiso       1.00
        O1          O  0.6349729  0.4552377  0.6349738    0.00000       Uiso       1.00
        B1          B  0.6102164  0.4555524  0.6469223    0.00000       Uiso       1.00
        B2          B  0.6102164  0.4555523  0.6102172    0.00000       Uiso       1.00
        O2          O  0.5970937  0.4552376  0.6349736    0.00000       Uiso       1.00
        O3          O  0.6349728  0.4552377  0.5970945    0.00000       Uiso       1.00
        B3          B  0.6469212  0.4555525  0.6102173    0.00000       Uiso       1.00
        O4          O  0.6349708  0.8147079  0.6349729    0.00000       Uiso       1.00
        B4          B  0.6469195  0.8015856  0.6102167    0.00000       Uiso       1.00
        B5          B  0.6102144  0.7648804  0.6102166    0.00000       Uiso       1.00
        O5          O  0.6349709  0.7768291  0.5970941    0.00000       Uiso       1.00
        O6          O  0.5970914  0.7768286  0.6349729    0.00000       Uiso       1.00
        B6          B  0.6102142  0.8015849  0.6469211    0.00000       Uiso       1.00
      C535          C  0.5477536  0.3629371  0.1983098    0.00000       Uiso       1.00
      C536          C  0.5490091  0.3421046  0.1773242    0.00000       Uiso       1.00
      C537          C  0.5514491  0.3221097  0.1766572    0.00000       Uiso       1.00
      C538          C  0.5514383  0.3009225  0.1559163    0.00000       Uiso       1.00
      C539          C  0.5475964  0.2987000  0.1358550    0.00000       Uiso       1.00
      C540          C  0.5448036  0.3189435  0.1370752    0.00000       Uiso       1.00
      C541          C  0.5472053  0.3412877  0.1566838    0.00000       Uiso       1.00
        O7          O  0.5482798  0.3662800  0.2203151    0.00000       Uiso       1.00
      H193          H  0.5533885  0.3230006  0.1923213    0.00000       Uiso       1.00
      H194          H  0.5541975  0.2863405  0.1560060    0.00000       Uiso       1.00
      H195          H  0.5391764  0.3168426  0.1234407    0.00000       Uiso       1.00
      C542          C  0.5478179  0.3831301  0.0488385    0.00000       Uiso       1.00
      C543          C  0.5490879  0.3842352  0.0696657    0.00000       Uiso       1.00
      C544          C  0.5515157  0.4059980  0.0896684    0.00000       Uiso       1.00
      C545          C  0.5514976  0.4064271  0.1108564    0.00000       Uiso       1.00
      C546          C  0.5476543  0.3847442  0.1130755    0.00000       Uiso       1.00
      C547          C  0.5448859  0.3629364  0.0928176    0.00000       Uiso       1.00
      C548          C  0.5472978  0.3626107  0.0704728    0.00000       Uiso       1.00
        O8          O  0.5483109  0.4023125  0.0455130    0.00000       Uiso       1.00
      H196          H  0.5534389  0.4227094  0.0887906    0.00000       Uiso       1.00
      H197          H  0.5542446  0.4238549  0.1254436    0.00000       Uiso       1.00
      H198          H  0.5392606  0.3457711  0.0949043    0.00000       Uiso       1.00
      C549          C  0.5477962  0.2135144  0.0286853    0.00000       Uiso       1.00
      C550          C  0.5490851  0.2345100  0.0275750    0.00000       Uiso       1.00
      C551          C  0.5515470  0.2351813  0.0058007    0.00000       Uiso       1.00
      C552          C  0.5515594  0.2559302  0.0053558    0.00000       Uiso       1.00
      C553          C  0.5477195  0.2759946  0.0270347    0.00000       Uiso       1.00
      C554          C  0.5449180  0.2747737  0.0488562    0.00000       Uiso       1.00
      C555          C  0.5472885  0.2551515  0.0491996    0.00000       Uiso       1.00
        O9          O  0.5483183  0.1915106  0.0094954    0.00000       Uiso       1.00
      H199          H  0.5534741  0.2195070  0.9890952    0.00000       Uiso       1.00
      H200          H  0.5543253  0.2558406  0.9879221    0.00000       Uiso       1.00
      H201          H  0.5392995  0.2884136  0.0660156    0.00000       Uiso       1.00
      C556          C  0.5446217  0.2125170  0.0501214    0.00000       Uiso       1.00
      C557          C  0.5440401  0.2329258  0.0715721    0.00000       Uiso       1.00
      C558          C  0.5413822  0.2319990  0.0933027    0.00000       Uiso       1.00
      C559          C  0.5417742  0.2528974  0.1143301    0.00000       Uiso       1.00
      C560          C  0.5462494  0.2756144  0.1137152    0.00000       Uiso       1.00
      C561          C  0.5494343  0.2762491  0.0914521    0.00000       Uiso       1.00
      C562          C  0.5465854  0.2549371  0.0708894    0.00000       Uiso       1.00
       O10          O  0.5428121  0.1897845  0.0475530    0.00000       Uiso       1.00
      H202          H  0.5389034  0.2149404  0.0939361    0.00000       Uiso       1.00
      H203          H  0.5387399  0.2509851  0.1308674    0.00000       Uiso       1.00
      H204          H  0.5555829  0.2936505  0.0895839    0.00000       Uiso       1.00
      C563          C  0.5446853  0.3617022  0.0295606    0.00000       Uiso       1.00
      C564          C  0.5441265  0.3402588  0.0290936    0.00000       Uiso       1.00
      C565          C  0.5415214  0.3185392  0.0090729    0.00000       Uiso       1.00
      C566          C  0.5419298  0.2975205  0.0085512    0.00000       Uiso       1.00
      C567          C  0.5463640  0.2981293  0.0274325    0.00000       Uiso       1.00
      C568          C  0.5494998  0.3203834  0.0471641    0.00000       Uiso       1.00
      C569          C  0.5466385  0.3409356  0.0492579    0.00000       Uiso       1.00
       O11          O  0.5428829  0.3642713  0.0112029    0.00000       Uiso       1.00
      H205          H  0.5390609  0.3179047  0.9938474    0.00000       Uiso       1.00
      H206          H  0.5389330  0.2809931  0.9931170    0.00000       Uiso       1.00
      H207          H  0.5556306  0.3222635  0.0603048    0.00000       Uiso       1.00
      C570          C  0.5446185  0.3822129  0.1992893    0.00000       Uiso       1.00
      C571          C  0.5440434  0.3826696  0.1788763    0.00000       Uiso       1.00
      C572          C  0.5414452  0.4026934  0.1797832    0.00000       Uiso       1.00
      C573          C  0.5418571  0.4032204  0.1588791    0.00000       Uiso       1.00
      C574          C  0.5462786  0.3843326  0.1361721    0.00000       Uiso       1.00
      C575          C  0.5493970  0.3645893  0.1355605    0.00000       Uiso       1.00
      C576          C  0.5465416  0.3624991  0.1568807    0.00000       Uiso       1.00
       O12          O  0.5428429  0.4005857  0.2220083    0.00000       Uiso       1.00
      H208          H  0.5389934  0.4179206  0.1968366    0.00000       Uiso       1.00
      H209          H  0.5388750  0.4186651  0.1607850    0.00000       Uiso       1.00
      H210          H  0.5555155  0.3514396  0.1181680    0.00000       Uiso       1.00
        B7          B  0.5451555  0.3902555  0.2352223    0.00000       Uiso       1.00
        B8          B  0.5451738  0.3901225  0.0215438    0.00000       Uiso       1.00
        B9          B  0.5451517  0.1765835  0.0216901    0.00000       Uiso       1.00
      C577          C  0.1983065  0.3831251  0.5477540    0.00000       Uiso       1.00
      C578          C  0.1773207  0.3842274  0.5490093    0.00000       Uiso       1.00
      C579          C  0.1766534  0.4059950  0.5514492    0.00000       Uiso       1.00
      C580          C  0.1559124  0.4064304  0.5514382    0.00000       Uiso       1.00
      C581          C  0.1358510  0.3847496  0.5475963    0.00000       Uiso       1.00
      C582          C  0.1370715  0.3629338  0.5448037    0.00000       Uiso       1.00
      C583          C  0.1566803  0.3626000  0.5472056    0.00000       Uiso       1.00
       O13          O  0.2203119  0.4023139  0.5482802    0.00000       Uiso       1.00
      H211          H  0.1923176  0.4227077  0.5533886    0.00000       Uiso       1.00
      H212          H  0.1560019  0.4238611  0.5541973    0.00000       Uiso       1.00
      H213          H  0.1234370  0.3457730  0.5391766    0.00000       Uiso       1.00
      C584          C  0.0488352  0.2135252  0.5478186    0.00000       Uiso       1.00
      C585          C  0.0696624  0.2345174  0.5490887    0.00000       Uiso       1.00
      C586          C  0.0896653  0.2351852  0.5515165    0.00000       Uiso       1.00
      C587          C  0.1108533  0.2559260  0.5514984    0.00000       Uiso       1.00
      C588          C  0.1130723  0.2759846  0.5476550    0.00000       Uiso       1.00
      C589          C  0.0928141  0.2747658  0.5448865    0.00000       Uiso       1.00
      C590          C  0.0704694  0.2551588  0.5472984    0.00000       Uiso       1.00
       O14          O  0.0455099  0.1915105  0.5483118    0.00000       Uiso       1.00
      H214          H  0.0887876  0.2195194  0.5534399    0.00000       Uiso       1.00
      H215          H  0.1254407  0.2558326  0.5542456    0.00000       Uiso       1.00
      H216          H  0.0949008  0.2883926  0.5392611    0.00000       Uiso       1.00
      C591          C  0.0286805  0.3629647  0.5477956    0.00000       Uiso       1.00
      C592          C  0.0275704  0.3421478  0.5490846    0.00000       Uiso       1.00
      C593          C  0.0057961  0.3221641  0.5515465    0.00000       Uiso       1.00
      C594          C  0.0053513  0.3009827  0.5515590    0.00000       Uiso       1.00
      C595          C  0.0270305  0.2987576  0.5477193    0.00000       Uiso       1.00
      C596          C  0.0488520  0.3189985  0.5449179    0.00000       Uiso       1.00
      C597          C  0.0491952  0.3413345  0.5472882    0.00000       Uiso       1.00
       O15          O  0.0094904  0.3663004  0.5483174    0.00000       Uiso       1.00
      H217          H  0.9890901  0.3230592  0.5534725    0.00000       Uiso       1.00
      H218          H  0.9879175  0.2864041  0.5543240    0.00000       Uiso       1.00
      H219          H  0.0660115  0.3168997  0.5392995    0.00000       Uiso       1.00
      C598          C  0.0501166  0.3822236  0.5446211    0.00000       Uiso       1.00
      C599          C  0.0715676  0.3826841  0.5440395    0.00000       Uiso       1.00
      C600          C  0.0932982  0.4026837  0.5413817    0.00000       Uiso       1.00
      C601          C  0.1143258  0.4032049  0.5417739    0.00000       Uiso       1.00
      C602          C  0.1137111  0.3843483  0.5462492    0.00000       Uiso       1.00
      C603          C  0.0914479  0.3646354  0.5494341    0.00000       Uiso       1.00
      C604          C  0.0708851  0.3625356  0.5465851    0.00000       Uiso       1.00
       O16          O  0.0475480  0.4005779  0.5428113    0.00000       Uiso       1.00
      H220          H  0.0939315  0.4178967  0.5389028    0.00000       Uiso       1.00
      H221          H  0.1308631  0.4186201  0.5387394    0.00000       Uiso       1.00
      H222          H  0.0895798  0.3515145  0.5555828    0.00000       Uiso       1.00
      C605          C  0.0295571  0.2125425  0.5446860    0.00000       Uiso       1.00
      C606          C  0.0290899  0.2329599  0.5441269    0.00000       Uiso       1.00
      C607          C  0.0090691  0.2320535  0.5415217    0.00000       Uiso       1.00
      C608          C  0.0085472  0.2529587  0.5419300    0.00000       Uiso       1.00
      C609          C  0.0274284  0.2756653  0.5463641    0.00000       Uiso       1.00
      C610          C  0.0471602  0.2762788  0.5495000    0.00000       Uiso       1.00
      C611          C  0.0492542  0.2549593  0.5466389    0.00000       Uiso       1.00
       O17          O  0.0111994  0.1898133  0.5428836    0.00000       Uiso       1.00
      H223          H  0.9938434  0.2150015  0.5390602    0.00000       Uiso       1.00
      H224          H  0.9931127  0.2510546  0.5389321    0.00000       Uiso       1.00
      H225          H  0.0603009  0.2936702  0.5556307    0.00000       Uiso       1.00
      C612          C  0.1992861  0.3616939  0.5446191    0.00000       Uiso       1.00
      C613          C  0.1788732  0.3402491  0.5440440    0.00000       Uiso       1.00
      C614          C  0.1797803  0.3185343  0.5414460    0.00000       Uiso       1.00
      C615          C  0.1588762  0.2975150  0.5418579    0.00000       Uiso       1.00
      C616          C  0.1361689  0.2981171  0.5462793    0.00000       Uiso       1.00
      C617          C  0.1355571  0.3203669  0.5493975    0.00000       Uiso       1.00
      C618          C  0.1568773  0.3409221  0.5465421    0.00000       Uiso       1.00
       O18          O  0.2220054  0.3642647  0.5428437    0.00000       Uiso       1.00
      H226          H  0.1968338  0.3179088  0.5389944    0.00000       Uiso       1.00
      H227          H  0.1607822  0.2809943  0.5388761    0.00000       Uiso       1.00
      H228          H  0.1181645  0.3222426  0.5555158    0.00000       Uiso       1.00
       B10          B  0.2352192  0.3901213  0.5451561    0.00000       Uiso       1.00
       B11          B  0.0215406  0.1765942  0.5451747    0.00000       Uiso       1.00
       B12          B  0.0216850  0.3902555  0.5451507    0.00000       Uiso       1.00
       O19          O  0.6349719  0.8147081  0.9565648    0.00000       Uiso       1.00
       B13          B  0.6102154  0.8015855  0.9562500    0.00000       Uiso       1.00
       B14          B  0.6102155  0.7648805  0.9562501    0.00000       Uiso       1.00
       O20          O  0.5970929  0.7768291  0.9565648    0.00000       Uiso       1.00
       O21          O  0.6349720  0.7768289  0.9565650    0.00000       Uiso       1.00
       B15          B  0.6469203  0.8015853  0.9562503    0.00000       Uiso       1.00
      C619          C  0.1983057  0.3629351  0.0286756    0.00000       Uiso       1.00
      C620          C  0.1773200  0.3421025  0.0275733    0.00000       Uiso       1.00
      C621          C  0.1766529  0.3221076  0.0058056    0.00000       Uiso       1.00
      C622          C  0.1559120  0.3009204  0.0053702    0.00000       Uiso       1.00
      C623          C  0.1358505  0.2986978  0.0270509    0.00000       Uiso       1.00
      C624          C  0.1370709  0.3189413  0.0488667    0.00000       Uiso       1.00
      C625          C  0.1566796  0.3412856  0.0492005    0.00000       Uiso       1.00
       O22          O  0.2203112  0.3662781  0.0094870    0.00000       Uiso       1.00
      H229          H  0.1923181  0.3229991  0.9890932    0.00000       Uiso       1.00
      H230          H  0.1560025  0.2863388  0.9879396    0.00000       Uiso       1.00
      H231          H  0.1234363  0.3168404  0.0660275    0.00000       Uiso       1.00
      C626          C  0.0488339  0.3831276  0.1982747    0.00000       Uiso       1.00
      C627          C  0.0696612  0.3842328  0.1772827    0.00000       Uiso       1.00
      C628          C  0.0896640  0.4059956  0.1766149    0.00000       Uiso       1.00
      C629          C  0.1108521  0.4064248  0.1558742    0.00000       Uiso       1.00
      C630          C  0.1130712  0.3847419  0.1358156    0.00000       Uiso       1.00
      C631          C  0.0928131  0.3629341  0.1370343    0.00000       Uiso       1.00
      C632          C  0.0704683  0.3626082  0.1566413    0.00000       Uiso       1.00
       O23          O  0.0455085  0.4023100  0.2202894    0.00000       Uiso       1.00
      H232          H  0.0887862  0.4227070  0.1922807    0.00000       Uiso       1.00
      H233          H  0.1254394  0.4238527  0.1559677    0.00000       Uiso       1.00
      H234          H  0.0948998  0.3457687  0.1234077    0.00000       Uiso       1.00
      C633          C  0.0286803  0.2135117  0.0488352    0.00000       Uiso       1.00
      C634          C  0.0275700  0.2345073  0.0696521    0.00000       Uiso       1.00
      C635          C  0.0057956  0.2351784  0.0896356    0.00000       Uiso       1.00
      C636          C  0.0053508  0.2559274  0.1108170    0.00000       Uiso       1.00
      C637          C  0.0270298  0.2759919  0.1130422    0.00000       Uiso       1.00
      C638          C  0.0488514  0.2747712  0.0928015    0.00000       Uiso       1.00
      C639          C  0.0491947  0.2551489  0.0704655    0.00000       Uiso       1.00
       O24          O  0.0094902  0.1915078  0.0454995    0.00000       Uiso       1.00
      H235          H  0.9890898  0.2195036  0.0887405    0.00000       Uiso       1.00
      H236          H  0.9879169  0.2558372  0.1253956    0.00000       Uiso       1.00
      H237          H  0.0660109  0.2884111  0.0949004    0.00000       Uiso       1.00
      C640          C  0.0501165  0.2125145  0.0295765    0.00000       Uiso       1.00
      C641          C  0.0715673  0.2329233  0.0291161    0.00000       Uiso       1.00
      C642          C  0.0932980  0.2319966  0.0091166    0.00000       Uiso       1.00
      C643          C  0.1143256  0.2528951  0.0085955    0.00000       Uiso       1.00
      C644          C  0.1137107  0.2756121  0.0274521    0.00000       Uiso       1.00
      C645          C  0.0914475  0.2762466  0.0471648    0.00000       Uiso       1.00
      C646          C  0.0708847  0.2549347  0.0492645    0.00000       Uiso       1.00
       O25          O  0.0475480  0.1897819  0.0112222    0.00000       Uiso       1.00
      H238          H  0.0939324  0.2149386  0.9939037    0.00000       Uiso       1.00
      H239          H  0.1308639  0.2509834  0.9931805    0.00000       Uiso       1.00
      H240          H  0.0895793  0.2936480  0.0602857    0.00000       Uiso       1.00
      C647          C  0.0295559  0.3616996  0.1992573    0.00000       Uiso       1.00
      C648          C  0.0290889  0.3402562  0.1788400    0.00000       Uiso       1.00
      C649          C  0.0090681  0.3185365  0.1797463    0.00000       Uiso       1.00
      C650          C  0.0085463  0.2975178  0.1588410    0.00000       Uiso       1.00
      C651          C  0.0274276  0.2981267  0.1361345    0.00000       Uiso       1.00
      C652          C  0.0471593  0.3203808  0.1355211    0.00000       Uiso       1.00
      C653          C  0.0492533  0.3409331  0.1568406    0.00000       Uiso       1.00
       O26          O  0.0111981  0.3642686  0.2219864    0.00000       Uiso       1.00
      H241          H  0.9938423  0.3179014  0.1967982    0.00000       Uiso       1.00
      H242          H  0.9931119  0.2809898  0.1607452    0.00000       Uiso       1.00
      H243          H  0.0603001  0.3222610  0.1181298    0.00000       Uiso       1.00
      C654          C  0.1992853  0.3822110  0.0501069    0.00000       Uiso       1.00
      C655          C  0.1788723  0.3826676  0.0715515    0.00000       Uiso       1.00
      C656          C  0.1797792  0.4026914  0.0932664    0.00000       Uiso       1.00
      C657          C  0.1588750  0.4032184  0.1142856    0.00000       Uiso       1.00
      C658          C  0.1361679  0.3843304  0.1136833    0.00000       Uiso       1.00
      C659          C  0.1355562  0.3645871  0.0914335    0.00000       Uiso       1.00
      C660          C  0.1568765  0.3624970  0.0708785    0.00000       Uiso       1.00
       O27          O  0.2220044  0.4005839  0.0475362    0.00000       Uiso       1.00
      H244          H  0.1968327  0.4179187  0.0938920    0.00000       Uiso       1.00
      H245          H  0.1607810  0.4186631  0.1308063    0.00000       Uiso       1.00
      H246          H  0.1181636  0.3514373  0.0895577    0.00000       Uiso       1.00
       B16          B  0.2352184  0.3902538  0.0216797    0.00000       Uiso       1.00
       B17          B  0.0215392  0.3901199  0.2352056    0.00000       Uiso       1.00
       B18          B  0.0216850  0.1765808  0.0215445    0.00000       Uiso       1.00
       O28          O  0.9565651  0.8147095  0.6349736    0.00000       Uiso       1.00
       B19          B  0.9562504  0.8015871  0.6469223    0.00000       Uiso       1.00
       B20          B  0.9562505  0.7648821  0.6102173    0.00000       Uiso       1.00
       O29          O  0.9565652  0.7768307  0.6349738    0.00000       Uiso       1.00
       O30          O  0.9565653  0.7768303  0.5970945    0.00000       Uiso       1.00
       B21          B  0.9562504  0.8015866  0.6102172    0.00000       Uiso       1.00
      C661          C  0.0286757  0.8640487  0.1983097    0.00000       Uiso       1.00
      C662          C  0.0275733  0.8627933  0.1773240    0.00000       Uiso       1.00
      C663          C  0.0058055  0.8603532  0.1766568    0.00000       Uiso       1.00
      C664          C  0.0053700  0.8603641  0.1559159    0.00000       Uiso       1.00
      C665          C  0.0270509  0.8642060  0.1358546    0.00000       Uiso       1.00
      C666          C  0.0488668  0.8669989  0.1370751    0.00000       Uiso       1.00
      C667          C  0.0492007  0.8645971  0.1566837    0.00000       Uiso       1.00
       O31          O  0.0094869  0.8635224  0.2203150    0.00000       Uiso       1.00
      H247          H  0.9890928  0.8584138  0.1923208    0.00000       Uiso       1.00
      H248          H  0.9879391  0.8576049  0.1560054    0.00000       Uiso       1.00
      H249          H  0.0660277  0.8726261  0.1234406    0.00000       Uiso       1.00
      C668          C  0.1982762  0.8639849  0.0488393    0.00000       Uiso       1.00
      C669          C  0.1772840  0.8627148  0.0696664    0.00000       Uiso       1.00
      C670          C  0.1766163  0.8602871  0.0896692    0.00000       Uiso       1.00
      C671          C  0.1558754  0.8603051  0.1108571    0.00000       Uiso       1.00
      C672          C  0.1358166  0.8641482  0.1130760    0.00000       Uiso       1.00
      C673          C  0.1370353  0.8669168  0.0928180    0.00000       Uiso       1.00
      C674          C  0.1566424  0.8645049  0.0704734    0.00000       Uiso       1.00
       O32          O  0.2202911  0.8634920  0.0455141    0.00000       Uiso       1.00
      H250          H  0.1922823  0.8583639  0.0887916    0.00000       Uiso       1.00
      H251          H  0.1559690  0.8575581  0.1254444    0.00000       Uiso       1.00
      H252          H  0.1234084  0.8725420  0.0949046    0.00000       Uiso       1.00
      C675          C  0.0488353  0.8640065  0.0286846    0.00000       Uiso       1.00
      C676          C  0.0696524  0.8627177  0.0275745    0.00000       Uiso       1.00
      C677          C  0.0896361  0.8602558  0.0058003    0.00000       Uiso       1.00
      C678          C  0.1108177  0.8602435  0.0053556    0.00000       Uiso       1.00
      C679          C  0.1130429  0.8640833  0.0270346    0.00000       Uiso       1.00
      C680          C  0.0928020  0.8668848  0.0488560    0.00000       Uiso       1.00
      C681          C  0.0704658  0.8645142  0.0491992    0.00000       Uiso       1.00
       O33          O  0.0454995  0.8634845  0.0094945    0.00000       Uiso       1.00
      H253          H  0.0887419  0.8583303  0.9890946    0.00000       Uiso       1.00
      H254          H  0.1253973  0.8574792  0.9879221    0.00000       Uiso       1.00
      H255          H  0.0949009  0.8725032  0.0660155    0.00000       Uiso       1.00
      C682          C  0.0295763  0.8671809  0.0501206    0.00000       Uiso       1.00
      C683          C  0.0291160  0.8677625  0.0715714    0.00000       Uiso       1.00
      C684          C  0.0091163  0.8704203  0.0933019    0.00000       Uiso       1.00
      C685          C  0.0085952  0.8700283  0.1143294    0.00000       Uiso       1.00
      C686          C  0.0274520  0.8655531  0.1137147    0.00000       Uiso       1.00
      C687          C  0.0471649  0.8623683  0.0914517    0.00000       Uiso       1.00
      C688          C  0.0492646  0.8652172  0.0708889    0.00000       Uiso       1.00
       O34          O  0.0112219  0.8689905  0.0475520    0.00000       Uiso       1.00
      H256          H  0.9939031  0.8728991  0.0939352    0.00000       Uiso       1.00
      H257          H  0.9931799  0.8730626  0.1308666    0.00000       Uiso       1.00
      H258          H  0.0602860  0.8562197  0.0895837    0.00000       Uiso       1.00
      C689          C  0.1992588  0.8671176  0.0295614    0.00000       Uiso       1.00
      C690          C  0.1788412  0.8676763  0.0290941    0.00000       Uiso       1.00
      C691          C  0.1797475  0.8702815  0.0090734    0.00000       Uiso       1.00
      C692          C  0.1588421  0.8698730  0.0085514    0.00000       Uiso       1.00
      C693          C  0.1361354  0.8654388  0.0274326    0.00000       Uiso       1.00
      C694          C  0.1355220  0.8623030  0.0471643    0.00000       Uiso       1.00
      C695          C  0.1568417  0.8651643  0.0492583    0.00000       Uiso       1.00
       O35          O  0.2219881  0.8689200  0.0112037    0.00000       Uiso       1.00
      H259          H  0.1968006  0.8727435  0.9938478    0.00000       Uiso       1.00
      H260          H  0.1607472  0.8728713  0.9931172    0.00000       Uiso       1.00
      H261          H  0.1181306  0.8561722  0.0603050    0.00000       Uiso       1.00
      C696          C  0.0501071  0.8671839  0.1992894    0.00000       Uiso       1.00
      C697          C  0.0715519  0.8677590  0.1788765    0.00000       Uiso       1.00
      C698          C  0.0932670  0.8703572  0.1797837    0.00000       Uiso       1.00
      C699          C  0.1142863  0.8699454  0.1588796    0.00000       Uiso       1.00
      C700          C  0.1136841  0.8655240  0.1361725    0.00000       Uiso       1.00
      C701          C  0.0914341  0.8624055  0.1355607    0.00000       Uiso       1.00
      C702          C  0.0708789  0.8652608  0.1568808    0.00000       Uiso       1.00
       O36          O  0.0475364  0.8689593  0.2220085    0.00000       Uiso       1.00
      H262          H  0.0938926  0.8728089  0.1968371    0.00000       Uiso       1.00
      H263          H  0.1308072  0.8729275  0.1607857    0.00000       Uiso       1.00
      H264          H  0.0895583  0.8562871  0.1181682    0.00000       Uiso       1.00
       B22          B  0.0216797  0.8666467  0.2352223    0.00000       Uiso       1.00
       B23          B  0.2352074  0.8666292  0.0215449    0.00000       Uiso       1.00
       B24          B  0.0215443  0.8666511  0.0216891    0.00000       Uiso       1.00
