data_91
_audit_creation_date              0000-00-00
_audit_creation_method            'LanYouShi'
_symmetry_space_group_name_H-M    'P1'
_cell_length_a                    74.4255981
_cell_length_b                    74.4260025
_cell_length_c                    74.4260025
_cell_angle_alpha                 119.9997025
_cell_angle_beta                  60.0001984
_cell_angle_gamma                 119.9999008
loop_
_atom_site_label
_atom_site_type_symbol
_atom_site_fract_x
_atom_site_fract_y
_atom_site_fract_z
_atom_site_U_iso_or_equiv
_atom_site_adp_type
_atom_site_occupancy
        C1          C  0.5872988  0.7135068  0.5872993    0.00000       Uiso       1.00
        C2          C  0.5985805  0.7020795  0.5662066    0.00000       Uiso       1.00
        C3          C  0.5888891  0.6791666  0.5565179    0.00000       Uiso       1.00
        C4          C  0.5662059  0.7020793  0.5985810    0.00000       Uiso       1.00
        C5          C  0.5564241  0.6792403  0.5889153    0.00000       Uiso       1.00
        C6          C  0.5675700  0.6671845  0.5676804    0.00000       Uiso       1.00
        C7          C  0.5389109  0.4127036  0.2864964    0.00000       Uiso       1.00
        C8          C  0.5372945  0.4337963  0.2979237    0.00000       Uiso       1.00
        C9          C  0.5339029  0.4435782  0.3207625    0.00000       Uiso       1.00
       C10          C  0.5372946  0.4014219  0.2979239    0.00000       Uiso       1.00
       C11          C  0.5337618  0.4111134  0.3208368    0.00000       Uiso       1.00
       C12          C  0.5319356  0.4324320  0.3328177    0.00000       Uiso       1.00
       C13          C  0.2864943  0.4127026  0.5389109    0.00000       Uiso       1.00
       C14          C  0.2979218  0.4014210  0.5372947    0.00000       Uiso       1.00
       C15          C  0.3207610  0.4110850  0.5339004    0.00000       Uiso       1.00
       C16          C  0.2979216  0.4337953  0.5372946    0.00000       Uiso       1.00
       C17          C  0.3208350  0.4434826  0.5337583    0.00000       Uiso       1.00
       C18          C  0.3328172  0.4323181  0.5319301    0.00000       Uiso       1.00
       C19          C  0.5872996  0.4610922  0.5873005    0.00000       Uiso       1.00
       C20          C  0.5662068  0.4627084  0.5985820    0.00000       Uiso       1.00
       C21          C  0.5565177  0.4662407  0.5888905    0.00000       Uiso       1.00
       C22          C  0.5985814  0.4627085  0.5662078    0.00000       Uiso       1.00
       C23          C  0.5889153  0.4660991  0.5564255    0.00000       Uiso       1.00
       C24          C  0.5676803  0.4680656  0.5675713    0.00000       Uiso       1.00
       C25          C  0.5000010  0.5000007  0.4999991    0.00000       Uiso       1.00
        F1          F  0.6210546  0.7139378  0.5538440    0.00000       Uiso       1.00
        F2          F  0.5538440  0.4609613  0.6210561    0.00000       Uiso       1.00
        F3          F  0.5390415  0.4461589  0.2860653    0.00000       Uiso       1.00
        F4          F  0.2860634  0.3789470  0.5390418    0.00000       Uiso       1.00
        F5          F  0.5538431  0.7139376  0.6210549    0.00000       Uiso       1.00
        F6          F  0.5390418  0.3789480  0.2860656    0.00000       Uiso       1.00
        F7          F  0.2860632  0.4461579  0.5390415    0.00000       Uiso       1.00
        F8          F  0.6210555  0.4609617  0.5538452    0.00000       Uiso       1.00
        F9          F  0.6018913  0.6676095  0.5343040    0.00000       Uiso       1.00
       F10          F  0.5337076  0.6680466  0.6015276    0.00000       Uiso       1.00
       F11          F  0.6015282  0.4671892  0.5337094    0.00000       Uiso       1.00
       F12          F  0.5343049  0.4685889  0.6018941    0.00000       Uiso       1.00
       F13          F  0.5328118  0.4662940  0.3319557    0.00000       Uiso       1.00
       F14          F  0.5314152  0.3981088  0.3323922    0.00000       Uiso       1.00
       F15          F  0.3323872  0.4656943  0.5314080    0.00000       Uiso       1.00
       F16          F  0.3319568  0.3984712  0.5328053    0.00000       Uiso       1.00
       C26          C  0.5570989  0.6424381  0.5574424    0.00000       Uiso       1.00
       C27          C  0.5615181  0.6321863  0.5343869    0.00000       Uiso       1.00
       C28          C  0.5519131  0.6091878  0.5248486    0.00000       Uiso       1.00
       C29          C  0.5425417  0.6287660  0.5706703    0.00000       Uiso       1.00
       C30          C  0.5326842  0.6058004  0.5613536    0.00000       Uiso       1.00
       C31          C  0.5374033  0.5959485  0.5383672    0.00000       Uiso       1.00
        H1          H  0.5390944  0.6358766  0.5882846    0.00000       Uiso       1.00
        H2          H  0.5722426  0.6421238  0.5237787    0.00000       Uiso       1.00
       C32          C  0.5278977  0.4429034  0.3575626    0.00000       Uiso       1.00
       C33          C  0.5155464  0.4574527  0.3712346    0.00000       Uiso       1.00
       C34          C  0.5117552  0.4673114  0.3941998    0.00000       Uiso       1.00
       C35          C  0.5362912  0.4384941  0.3678135    0.00000       Uiso       1.00
       C36          C  0.5324363  0.4481000  0.3908104    0.00000       Uiso       1.00
       C37          C  0.5201799  0.4626009  0.4040501    0.00000       Uiso       1.00
        H3          H  0.5461206  0.4277782  0.3578800    0.00000       Uiso       1.00
        H4          H  0.5084830  0.4608934  0.3641239    0.00000       Uiso       1.00
       C38          C  0.3575635  0.4425520  0.5278895    0.00000       Uiso       1.00
       C39          C  0.3712336  0.4293209  0.5155461    0.00000       Uiso       1.00
       C40          C  0.3942016  0.4386365  0.5117544    0.00000       Uiso       1.00
       C41          C  0.3678159  0.4656064  0.5362743    0.00000       Uiso       1.00
       C42          C  0.3908129  0.4751422  0.5324182    0.00000       Uiso       1.00
       C43          C  0.4040535  0.4616252  0.5201711    0.00000       Uiso       1.00
        H5          H  0.3578847  0.4762188  0.5460967    0.00000       Uiso       1.00
        H6          H  0.3641153  0.4117038  0.5084908    0.00000       Uiso       1.00
       C44          C  0.5574426  0.4721027  0.5571000    0.00000       Uiso       1.00
       C45          C  0.5343881  0.4637112  0.5615120    0.00000       Uiso       1.00
       C46          C  0.5248497  0.4675682  0.5519088    0.00000       Uiso       1.00
       C47          C  0.5706701  0.4844520  0.5425493    0.00000       Uiso       1.00
       C48          C  0.5613534  0.4882427  0.5326911    0.00000       Uiso       1.00
       C49          C  0.5383679  0.4798226  0.5374053    0.00000       Uiso       1.00
        H7          H  0.5882839  0.4915120  0.5391071    0.00000       Uiso       1.00
        H8          H  0.5237834  0.4538822  0.5722288    0.00000       Uiso       1.00
       C50          C  0.5019454  0.4594224  0.5565863    0.00000       Uiso       1.00
       C51          C  0.4925768  0.4635667  0.5472358    0.00000       Uiso       1.00
       C52          C  0.5405888  0.4434278  0.4008905    0.00000       Uiso       1.00
       C53          C  0.5364475  0.4527803  0.4237528    0.00000       Uiso       1.00
        H9          H  0.5500775  0.4323721  0.3910783    0.00000       Uiso       1.00
       H10          H  0.5428176  0.4486635  0.4309894    0.00000       Uiso       1.00
       H11          H  0.4912172  0.4499352  0.5676426    0.00000       Uiso       1.00
       H12          H  0.4748538  0.4572018  0.5513535    0.00000       Uiso       1.00
       C54          C  0.5277251  0.5727912  0.5288751    0.00000       Uiso       1.00
       C55          C  0.5327614  0.5628523  0.5058706    0.00000       Uiso       1.00
       C56          C  0.5236046  0.5397472  0.4964768    0.00000       Uiso       1.00
       C57          C  0.5133007  0.5595713  0.5423852    0.00000       Uiso       1.00
       C58          C  0.5040295  0.5365728  0.5328427    0.00000       Uiso       1.00
       C59          C  0.5088003  0.5260050  0.5097116    0.00000       Uiso       1.00
       H13          H  0.4898289  0.5066773  0.4733888    0.00000       Uiso       1.00
       H14          H  0.4673335  0.5212438  0.5251873    0.00000       Uiso       1.00
       C60          C  0.5161945  0.4722793  0.4272065    0.00000       Uiso       1.00
       C61          C  0.5038812  0.4866973  0.4404279    0.00000       Uiso       1.00
       C62          C  0.4996969  0.4959700  0.4634273    0.00000       Uiso       1.00
       C63          C  0.5242339  0.4672520  0.4371449    0.00000       Uiso       1.00
       C64          C  0.5196776  0.4764079  0.4602507    0.00000       Uiso       1.00
       C65          C  0.5074943  0.4912029  0.4739945    0.00000       Uiso       1.00
       H15          H  0.5287153  0.5326660  0.4787561    0.00000       Uiso       1.00
       H16          H  0.5434614  0.5101487  0.4933029    0.00000       Uiso       1.00
       C66          C  0.4272092  0.4711210  0.5161878    0.00000       Uiso       1.00
       C67          C  0.4404298  0.4576107  0.5038843    0.00000       Uiso       1.00
       C68          C  0.4634289  0.4671550  0.4997008    0.00000       Uiso       1.00
       C69          C  0.4371473  0.4941275  0.5242178    0.00000       Uiso       1.00
       C70          C  0.4602532  0.5035229  0.5196618    0.00000       Uiso       1.00
       C71          C  0.4739961  0.4902878  0.5074908    0.00000       Uiso       1.00
       H17          H  0.4787546  0.4747975  0.5287049    0.00000       Uiso       1.00
       H18          H  0.4933155  0.5266128  0.5434573    0.00000       Uiso       1.00
       C72          C  0.5288758  0.4838096  0.5277272    0.00000       Uiso       1.00
       C73          C  0.5058697  0.4757763  0.5327603    0.00000       Uiso       1.00
       C74          C  0.4964762  0.4803332  0.5236034    0.00000       Uiso       1.00
       C75          C  0.5423870  0.4961160  0.5133022    0.00000       Uiso       1.00
       C76          C  0.5328453  0.5002988  0.5040274    0.00000       Uiso       1.00
       C77          C  0.5097129  0.4925082  0.5087999    0.00000       Uiso       1.00
       H19          H  0.4733926  0.4565434  0.4898483    0.00000       Uiso       1.00
       H20          H  0.5252150  0.4713042  0.4673316    0.00000       Uiso       1.00
       C78          C  0.4237550  0.5074203  0.5364215    0.00000       Uiso       1.00
       C79          C  0.4008920  0.4980494  0.5405630    0.00000       Uiso       1.00
       C80          C  0.4304039  0.4347125  0.4956578    0.00000       Uiso       1.00
       C81          C  0.4075984  0.4253536  0.4995162    0.00000       Uiso       1.00
       C82          C  0.5472431  0.5762433  0.4925762    0.00000       Uiso       1.00
       C83          C  0.5565965  0.5991068  0.5019435    0.00000       Uiso       1.00
       C84          C  0.5086534  0.5695981  0.5652842    0.00000       Uiso       1.00
       C85          C  0.5182415  0.5924065  0.5746407    0.00000       Uiso       1.00
       C86          C  0.5652855  0.5043437  0.5086586    0.00000       Uiso       1.00
       C87          C  0.5746400  0.5004833  0.5182505    0.00000       Uiso       1.00
       C88          C  0.4956467  0.4913353  0.4304019    0.00000       Uiso       1.00
       C89          C  0.4995089  0.4817464  0.4075949    0.00000       Uiso       1.00
       H21          H  0.4860566  0.5023087  0.4402381    0.00000       Uiso       1.00
       H22          H  0.4928400  0.4855926  0.4004187    0.00000       Uiso       1.00
       H23          H  0.4004230  0.4076613  0.4928521    0.00000       Uiso       1.00
       H24          H  0.4402390  0.4239849  0.4860754    0.00000       Uiso       1.00
       H25          H  0.4309932  0.5251454  0.5427832    0.00000       Uiso       1.00
       H26          H  0.3910790  0.5087805  0.5500436    0.00000       Uiso       1.00
       H27          H  0.5143898  0.5995871  0.5923325    0.00000       Uiso       1.00
       H28          H  0.4976733  0.5597656  0.5760145    0.00000       Uiso       1.00
       H29          H  0.5513678  0.5690061  0.4748533    0.00000       Uiso       1.00
       H30          H  0.5676606  0.6089239  0.4912157    0.00000       Uiso       1.00
       H31          H  0.5923306  0.5071464  0.5144001    0.00000       Uiso       1.00
       H32          H  0.5760133  0.5139245  0.4976768    0.00000       Uiso       1.00
       C90          C  0.0100454  0.7135088  0.5873013    0.00000       Uiso       1.00
       C91          C  0.0084292  0.7020814  0.5985830    0.00000       Uiso       1.00
       C92          C  0.0048966  0.6791686  0.5888917    0.00000       Uiso       1.00
       C93          C  0.0084292  0.7020814  0.5662086    0.00000       Uiso       1.00
       C94          C  0.0050378  0.6792426  0.5564269    0.00000       Uiso       1.00
       C95          C  0.0030710  0.6671867  0.5675728    0.00000       Uiso       1.00
       C96          C  0.0584353  0.4127062  0.5389146    0.00000       Uiso       1.00
       C97          C  0.0697169  0.4337990  0.5372983    0.00000       Uiso       1.00
       C98          C  0.0600517  0.4435809  0.5339066    0.00000       Uiso       1.00
       C99          C  0.0373424  0.4014245  0.5372983    0.00000       Uiso       1.00
      C100          C  0.0276537  0.4111159  0.5337654    0.00000       Uiso       1.00
      C101          C  0.0388174  0.4324345  0.5319391    0.00000       Uiso       1.00
      C102          C  0.0584349  0.4127063  0.2864992    0.00000       Uiso       1.00
      C103          C  0.0373420  0.4014245  0.2979266    0.00000       Uiso       1.00
      C104          C  0.0275611  0.4110884  0.3207656    0.00000       Uiso       1.00
      C105          C  0.0697166  0.4337990  0.2979266    0.00000       Uiso       1.00
      C106          C  0.0600268  0.4434862  0.3208398    0.00000       Uiso       1.00
      C107          C  0.0387082  0.4323215  0.3328218    0.00000       Uiso       1.00
      C108          C  0.7576295  0.4610931  0.5873013    0.00000       Uiso       1.00
      C109          C  0.7690569  0.4627094  0.5662086    0.00000       Uiso       1.00
      C110          C  0.7919698  0.4662418  0.5565197    0.00000       Uiso       1.00
      C111          C  0.7690570  0.4627094  0.5985830    0.00000       Uiso       1.00
      C112          C  0.7918959  0.4661001  0.5889171    0.00000       Uiso       1.00
      C113          C  0.8039514  0.4680668  0.5676823    0.00000       Uiso       1.00
      C114          C  0.9711384  0.5000030  0.5000042    0.00000       Uiso       1.00
       F17          F  0.0101762  0.7139398  0.6210571    0.00000       Uiso       1.00
       F18          F  0.7571985  0.4609623  0.5538459    0.00000       Uiso       1.00
       F19          F  0.0921910  0.4461617  0.5390453    0.00000       Uiso       1.00
       F20          F  0.0249794  0.3789505  0.2860682    0.00000       Uiso       1.00
       F21          F  0.0101761  0.7139398  0.5538459    0.00000       Uiso       1.00
       F22          F  0.0249797  0.3789505  0.5390453    0.00000       Uiso       1.00
       F23          F  0.0921907  0.4461617  0.2860682    0.00000       Uiso       1.00
       F24          F  0.7571986  0.4609624  0.6210570    0.00000       Uiso       1.00
       F25          F  0.0025514  0.6676115  0.6018940    0.00000       Uiso       1.00
       F26          F  0.0039481  0.6680489  0.5337106    0.00000       Uiso       1.00
       F27          F  0.8030894  0.4671902  0.6015301    0.00000       Uiso       1.00
       F28          F  0.8035272  0.4685903  0.5343071    0.00000       Uiso       1.00
       F29          F  0.0726651  0.4662967  0.5328155    0.00000       Uiso       1.00
       F30          F  0.0054402  0.3981112  0.5314187    0.00000       Uiso       1.00
       F31          F  0.0730366  0.4656979  0.3323919    0.00000       Uiso       1.00
       F32          F  0.0048467  0.3984744  0.3319613    0.00000       Uiso       1.00
      C115          C  0.9990340  0.6424403  0.5571017    0.00000       Uiso       1.00
      C116          C  0.0074185  0.6321885  0.5615210    0.00000       Uiso       1.00
      C117          C  0.0035635  0.6091900  0.5519161    0.00000       Uiso       1.00
      C118          C  0.9866910  0.6287681  0.5425446    0.00000       Uiso       1.00
      C119          C  0.9828996  0.6058025  0.5326872    0.00000       Uiso       1.00
      C120          C  0.9913154  0.5959508  0.5374063    0.00000       Uiso       1.00
       H33          H  0.9796346  0.6358788  0.5390972    0.00000       Uiso       1.00
       H34          H  0.0172398  0.6421260  0.5722454    0.00000       Uiso       1.00
      C121          C  0.0285817  0.4429059  0.5279012    0.00000       Uiso       1.00
      C122          C  0.0418102  0.4574554  0.5155500    0.00000       Uiso       1.00
      C123          C  0.0324946  0.4673139  0.5117589    0.00000       Uiso       1.00
      C124          C  0.0055279  0.4384964  0.5362946    0.00000       Uiso       1.00
      C125          C  0.9959917  0.4481023  0.5324396    0.00000       Uiso       1.00
      C126          C  0.0095092  0.4626033  0.5201833    0.00000       Uiso       1.00
       H35          H  0.9949163  0.4277804  0.5461239    0.00000       Uiso       1.00
       H36          H  0.0594250  0.4608961  0.5084868    0.00000       Uiso       1.00
      C127          C  0.0282365  0.4425552  0.3575679    0.00000       Uiso       1.00
      C128          C  0.0136788  0.4293240  0.3712379    0.00000       Uiso       1.00
      C129          C  0.0038181  0.4386394  0.3942057    0.00000       Uiso       1.00
      C130          C  0.0326537  0.4656096  0.3678202    0.00000       Uiso       1.00
      C131          C  0.0230486  0.4751452  0.3908170    0.00000       Uiso       1.00
      C132          C  0.0085382  0.4616281  0.4040575    0.00000       Uiso       1.00
       H37          H  0.0433747  0.4762221  0.3578891    0.00000       Uiso       1.00
       H38          H  0.0102355  0.4117069  0.3641196    0.00000       Uiso       1.00
      C133          C  0.8286976  0.4721040  0.5574448    0.00000       Uiso       1.00
      C134          C  0.8389487  0.4637127  0.5343904    0.00000       Uiso       1.00
      C135          C  0.8619473  0.4675699  0.5248522    0.00000       Uiso       1.00
      C136          C  0.8423702  0.4844533  0.5706723    0.00000       Uiso       1.00
      C137          C  0.8653358  0.4882442  0.5613558    0.00000       Uiso       1.00
      C138          C  0.8751869  0.4798242  0.5383705    0.00000       Uiso       1.00
       H39          H  0.8352587  0.4915132  0.5882859    0.00000       Uiso       1.00
       H40          H  0.8290074  0.4538837  0.5237858    0.00000       Uiso       1.00
      C139          C  0.8720282  0.4594242  0.5019481    0.00000       Uiso       1.00
      C140          C  0.8948916  0.4635687  0.4925797    0.00000       Uiso       1.00
      C141          C  0.9730869  0.4434299  0.5405920    0.00000       Uiso       1.00
      C142          C  0.9637183  0.4527825  0.5364507    0.00000       Uiso       1.00
       H41          H  0.9623548  0.4323742  0.5500807    0.00000       Uiso       1.00
       H42          H  0.9459947  0.4486656  0.5428206    0.00000       Uiso       1.00
       H43          H  0.8622128  0.4499370  0.4912199    0.00000       Uiso       1.00
       H44          H  0.9021321  0.4572039  0.4748569    0.00000       Uiso       1.00
      C143          C  0.9873283  0.5727934  0.5277282    0.00000       Uiso       1.00
      C144          C  0.9953578  0.5628546  0.5327645    0.00000       Uiso       1.00
      C145          C  0.9908034  0.5397496  0.5236078    0.00000       Uiso       1.00
      C146          C  0.9750229  0.5595736  0.5133038    0.00000       Uiso       1.00
      C147          C  0.9708380  0.5365750  0.5040327    0.00000       Uiso       1.00
      C148          C  0.9786307  0.5260072  0.5088035    0.00000       Uiso       1.00
       H45          H  0.0145974  0.5066798  0.4898324    0.00000       Uiso       1.00
       H46          H  0.9998606  0.5212464  0.4673370    0.00000       Uiso       1.00
      C149          C  0.0000164  0.4722817  0.5161979    0.00000       Uiso       1.00
      C150          C  0.0135263  0.4866998  0.5038846    0.00000       Uiso       1.00
      C151          C  0.0039838  0.4959726  0.4997003    0.00000       Uiso       1.00
      C152          C  0.9770113  0.4672542  0.5242371    0.00000       Uiso       1.00
      C153          C  0.9676175  0.4764101  0.5196808    0.00000       Uiso       1.00
      C154          C  0.9808520  0.4912052  0.5074976    0.00000       Uiso       1.00
       H47          H  0.9963324  0.5326683  0.5287185    0.00000       Uiso       1.00
       H48          H  0.9445221  0.5101507  0.5434643    0.00000       Uiso       1.00
      C155          C  0.9988616  0.4711238  0.4272130    0.00000       Uiso       1.00
      C156          C  0.9844342  0.4576133  0.4404335    0.00000       Uiso       1.00
      C157          C  0.9751630  0.4671575  0.4634324    0.00000       Uiso       1.00
      C158          C  0.0039000  0.4941303  0.4371510    0.00000       Uiso       1.00
      C159          C  0.9947455  0.5035256  0.4602568    0.00000       Uiso       1.00
      C160          C  0.9799387  0.4902903  0.4739995    0.00000       Uiso       1.00
       H49          H  0.9384756  0.4747997  0.4787579    0.00000       Uiso       1.00
       H50          H  0.9609773  0.5266150  0.4933187    0.00000       Uiso       1.00
      C161          C  0.8983443  0.4838114  0.5288785    0.00000       Uiso       1.00
      C162          C  0.9082840  0.4757783  0.5058726    0.00000       Uiso       1.00
      C163          C  0.9313912  0.4803353  0.4964793    0.00000       Uiso       1.00
      C164          C  0.9115645  0.4961178  0.5423897    0.00000       Uiso       1.00
      C165          C  0.9345639  0.5003008  0.5328481    0.00000       Uiso       1.00
      C166          C  0.9451330  0.4925103  0.5097160    0.00000       Uiso       1.00
       H51          H  0.9644405  0.4565458  0.4733960    0.00000       Uiso       1.00
       H52          H  0.9498957  0.4713063  0.5252181    0.00000       Uiso       1.00
      C167          C  0.0183812  0.5074232  0.4237589    0.00000       Uiso       1.00
      C168          C  0.0277318  0.4980525  0.4008961    0.00000       Uiso       1.00
      C169          C  0.9797885  0.4347152  0.4304077    0.00000       Uiso       1.00
      C170          C  0.9893768  0.4253564  0.4076024    0.00000       Uiso       1.00
      C171          C  0.0075616  0.5762456  0.5472462    0.00000       Uiso       1.00
      C172          C  0.0117043  0.5991091  0.5565994    0.00000       Uiso       1.00
      C173          C  0.9667978  0.5696004  0.5086564    0.00000       Uiso       1.00
      C174          C  0.9706614  0.5924086  0.5182444    0.00000       Uiso       1.00
      C175          C  0.9015373  0.5043454  0.5652880    0.00000       Uiso       1.00
      C176          C  0.8787305  0.5004848  0.5746424    0.00000       Uiso       1.00
      C177          C  0.0364248  0.4913380  0.4956504    0.00000       Uiso       1.00
      C178          C  0.0457808  0.4817491  0.4995126    0.00000       Uiso       1.00
       H53          H  0.0471520  0.5023114  0.4860604    0.00000       Uiso       1.00
       H54          H  0.0634722  0.4855955  0.4928438    0.00000       Uiso       1.00
       H55          H  0.9855240  0.4076641  0.4004271    0.00000       Uiso       1.00
       H56          H  0.9688086  0.4239875  0.4402426    0.00000       Uiso       1.00
       H57          H  0.0225063  0.5251483  0.4309970    0.00000       Uiso       1.00
       H58          H  0.0387951  0.5087836  0.3910831    0.00000       Uiso       1.00
       H59          H  0.9640018  0.5995892  0.5143927    0.00000       Uiso       1.00
       H60          H  0.9572150  0.5597678  0.4976763    0.00000       Uiso       1.00
       H61          H  0.0139227  0.5690084  0.5513709    0.00000       Uiso       1.00
       H62          H  0.0211851  0.6089261  0.5676636    0.00000       Uiso       1.00
       H63          H  0.8715534  0.5071478  0.5923328    0.00000       Uiso       1.00
       H64          H  0.9113722  0.5139261  0.5760158    0.00000       Uiso       1.00
      C179          C  0.5872982  0.7135064  0.0100445    0.00000       Uiso       1.00
      C180          C  0.5662053  0.7020789  0.0084281    0.00000       Uiso       1.00
      C181          C  0.5565166  0.6791661  0.0048955    0.00000       Uiso       1.00
      C182          C  0.5985800  0.7020791  0.0084283    0.00000       Uiso       1.00
      C183          C  0.5889143  0.6792402  0.0050369    0.00000       Uiso       1.00
      C184          C  0.5676792  0.6671842  0.0030700    0.00000       Uiso       1.00
      C185          C  0.2864935  0.4127021  0.0584329    0.00000       Uiso       1.00
      C186          C  0.2979209  0.4337949  0.0697146    0.00000       Uiso       1.00
      C187          C  0.3207598  0.4435770  0.0600495    0.00000       Uiso       1.00
      C188          C  0.2979210  0.4014206  0.0373403    0.00000       Uiso       1.00
      C189          C  0.3208340  0.4111121  0.0276517    0.00000       Uiso       1.00
      C190          C  0.3328151  0.4324307  0.0388154    0.00000       Uiso       1.00
      C191          C  0.5389106  0.4127035  0.0584340    0.00000       Uiso       1.00
      C192          C  0.5372944  0.4014218  0.0373413    0.00000       Uiso       1.00
      C193          C  0.5339000  0.4110857  0.0275603    0.00000       Uiso       1.00
      C194          C  0.5372943  0.4337962  0.0697156    0.00000       Uiso       1.00
      C195          C  0.5337579  0.4434834  0.0600258    0.00000       Uiso       1.00
      C196          C  0.5319297  0.4323187  0.0387074    0.00000       Uiso       1.00
      C197          C  0.5872998  0.4610923  0.7576294    0.00000       Uiso       1.00
      C198          C  0.5985816  0.4627086  0.7690569    0.00000       Uiso       1.00
      C199          C  0.5888900  0.4662409  0.7919695    0.00000       Uiso       1.00
      C200          C  0.5662069  0.4627085  0.7690567    0.00000       Uiso       1.00
      C201          C  0.5564247  0.4660990  0.7918954    0.00000       Uiso       1.00
      C202          C  0.5675707  0.4680657  0.8039510    0.00000       Uiso       1.00
      C203          C  0.4999985  0.5000008  0.9711366    0.00000       Uiso       1.00
       F33          F  0.5538425  0.7139372  0.0101750    0.00000       Uiso       1.00
       F34          F  0.6210557  0.4609617  0.7571986    0.00000       Uiso       1.00
       F35          F  0.2860624  0.4461575  0.0921885    0.00000       Uiso       1.00
       F36          F  0.5390415  0.3789479  0.0249787    0.00000       Uiso       1.00
       F37          F  0.6210541  0.7139376  0.0101753    0.00000       Uiso       1.00
       F38          F  0.2860626  0.3789465  0.0249776    0.00000       Uiso       1.00
       F39          F  0.5390413  0.4461588  0.0921896    0.00000       Uiso       1.00
       F40          F  0.5538442  0.4609614  0.7571982    0.00000       Uiso       1.00
       F41          F  0.5343024  0.6676089  0.0025502    0.00000       Uiso       1.00
       F42          F  0.6015267  0.6680466  0.0039473    0.00000       Uiso       1.00
       F43          F  0.5337083  0.4671890  0.8030887    0.00000       Uiso       1.00
       F44          F  0.6018938  0.4685893  0.8035270    0.00000       Uiso       1.00
       F45          F  0.3319532  0.4662927  0.0726629    0.00000       Uiso       1.00
       F46          F  0.3323895  0.3981076  0.0054384    0.00000       Uiso       1.00
       F47          F  0.5314076  0.4656950  0.0730354    0.00000       Uiso       1.00
       F48          F  0.5328047  0.3984719  0.0048461    0.00000       Uiso       1.00
      C204          C  0.5574421  0.6424383  0.9990322    0.00000       Uiso       1.00
      C205          C  0.5343854  0.6321858  0.0074174    0.00000       Uiso       1.00
      C206          C  0.5248471  0.6091874  0.0035624    0.00000       Uiso       1.00
      C207          C  0.5706701  0.6287662  0.9866893    0.00000       Uiso       1.00
      C208          C  0.5613534  0.6058006  0.9828980    0.00000       Uiso       1.00
      C209          C  0.5383668  0.5959487  0.9913136    0.00000       Uiso       1.00
       H65          H  0.5882845  0.6358770  0.9796331    0.00000       Uiso       1.00
       H66          H  0.5237771  0.6421232  0.0172386    0.00000       Uiso       1.00
      C210          C  0.3575601  0.4429023  0.0285798    0.00000       Uiso       1.00
      C211          C  0.3712323  0.4574518  0.0418084    0.00000       Uiso       1.00
      C212          C  0.3941977  0.4673105  0.0324929    0.00000       Uiso       1.00
      C213          C  0.3678110  0.4384930  0.0055262    0.00000       Uiso       1.00
      C214          C  0.3908091  0.4480995  0.9959893    0.00000       Uiso       1.00
      C215          C  0.4040479  0.4626001  0.0095077    0.00000       Uiso       1.00
       H67          H  0.3578784  0.4277775  0.9949137    0.00000       Uiso       1.00
       H68          H  0.3641216  0.4608924  0.0594230    0.00000       Uiso       1.00
      C216          C  0.5278888  0.4425525  0.0282357    0.00000       Uiso       1.00
      C217          C  0.5155452  0.4293213  0.0136780    0.00000       Uiso       1.00
      C218          C  0.5117534  0.4386367  0.0038173    0.00000       Uiso       1.00
      C219          C  0.5362736  0.4656069  0.0326528    0.00000       Uiso       1.00
      C220          C  0.5324174  0.4751425  0.0230477    0.00000       Uiso       1.00
      C221          C  0.5201702  0.4616255  0.0085374    0.00000       Uiso       1.00
       H69          H  0.5460963  0.4762194  0.0433738    0.00000       Uiso       1.00
       H70          H  0.5084900  0.4117042  0.0102346    0.00000       Uiso       1.00
      C222          C  0.5570994  0.4721028  0.8286970    0.00000       Uiso       1.00
      C223          C  0.5615115  0.4637114  0.8389481    0.00000       Uiso       1.00
      C224          C  0.5519084  0.4675685  0.8619465    0.00000       Uiso       1.00
      C225          C  0.5425485  0.4844519  0.8423693    0.00000       Uiso       1.00
      C226          C  0.5326903  0.4882427  0.8653348    0.00000       Uiso       1.00
      C227          C  0.5374047  0.4798227  0.8751860    0.00000       Uiso       1.00
       H71          H  0.5391062  0.4915119  0.8352578    0.00000       Uiso       1.00
       H72          H  0.5722284  0.4538826  0.8290069    0.00000       Uiso       1.00
      C228          C  0.5565860  0.4594228  0.8720274    0.00000       Uiso       1.00
      C229          C  0.5472355  0.4635671  0.8948906    0.00000       Uiso       1.00
      C230          C  0.4008892  0.4434273  0.9730846    0.00000       Uiso       1.00
      C231          C  0.4237516  0.4527800  0.9637163    0.00000       Uiso       1.00
       H73          H  0.3910768  0.4323716  0.9623527    0.00000       Uiso       1.00
       H74          H  0.4309882  0.4486631  0.9459928    0.00000       Uiso       1.00
       H75          H  0.5676424  0.4499356  0.8622121    0.00000       Uiso       1.00
       H76          H  0.5513532  0.4572023  0.9021310    0.00000       Uiso       1.00
      C232          C  0.5288747  0.5727913  0.9873266    0.00000       Uiso       1.00
      C233          C  0.5058700  0.5628523  0.9953559    0.00000       Uiso       1.00
      C234          C  0.4964763  0.5397473  0.9908015    0.00000       Uiso       1.00
      C235          C  0.5423849  0.5595716  0.9750212    0.00000       Uiso       1.00
      C236          C  0.5328424  0.5365731  0.9708364    0.00000       Uiso       1.00
      C237          C  0.5097111  0.5260051  0.9786289    0.00000       Uiso       1.00
       H77          H  0.4733872  0.5066769  0.0145962    0.00000       Uiso       1.00
       H78          H  0.5251871  0.5212443  0.9998589    0.00000       Uiso       1.00
      C238          C  0.4272045  0.4722786  0.0000150    0.00000       Uiso       1.00
      C239          C  0.4404261  0.4866967  0.0135249    0.00000       Uiso       1.00
      C240          C  0.4634256  0.4959696  0.0039825    0.00000       Uiso       1.00
      C241          C  0.4371439  0.4672517  0.9770092    0.00000       Uiso       1.00
      C242          C  0.4602499  0.4764077  0.9676156    0.00000       Uiso       1.00
      C243          C  0.4739937  0.4912029  0.9808501    0.00000       Uiso       1.00
       H79          H  0.4787554  0.5326659  0.9963303    0.00000       Uiso       1.00
       H80          H  0.4933022  0.5101486  0.9445204    0.00000       Uiso       1.00
      C244          C  0.5161877  0.4711216  0.9988599    0.00000       Uiso       1.00
      C245          C  0.5038841  0.4576111  0.9844326    0.00000       Uiso       1.00
      C246          C  0.4997005  0.4671553  0.9751613    0.00000       Uiso       1.00
      C247          C  0.5242168  0.4941277  0.0038992    0.00000       Uiso       1.00
      C248          C  0.5196615  0.5035234  0.9947438    0.00000       Uiso       1.00
      C249          C  0.5074904  0.4902881  0.9799370    0.00000       Uiso       1.00
       H81          H  0.5287045  0.4747979  0.9384742    0.00000       Uiso       1.00
       H82          H  0.5434571  0.5266132  0.9609758    0.00000       Uiso       1.00
      C250          C  0.5277266  0.4838097  0.8983431    0.00000       Uiso       1.00
      C251          C  0.5327598  0.4757766  0.9082828    0.00000       Uiso       1.00
      C252          C  0.5236031  0.4803335  0.9313898    0.00000       Uiso       1.00
      C253          C  0.5133015  0.4961160  0.9115631    0.00000       Uiso       1.00
      C254          C  0.5040267  0.5002988  0.9345623    0.00000       Uiso       1.00
      C255          C  0.5087993  0.4925083  0.9451315    0.00000       Uiso       1.00
       H83          H  0.4898477  0.4565437  0.9644388    0.00000       Uiso       1.00
       H84          H  0.4673307  0.4713041  0.9498939    0.00000       Uiso       1.00
      C256          C  0.5364206  0.5074205  0.0183803    0.00000       Uiso       1.00
      C257          C  0.5405622  0.4980498  0.0277309    0.00000       Uiso       1.00
      C258          C  0.4956575  0.4347130  0.9797869    0.00000       Uiso       1.00
      C259          C  0.4995161  0.4253542  0.9893751    0.00000       Uiso       1.00
      C260          C  0.4925745  0.5762427  0.0075604    0.00000       Uiso       1.00
      C261          C  0.5019419  0.5991062  0.0117031    0.00000       Uiso       1.00
      C262          C  0.5652841  0.5695986  0.9667963    0.00000       Uiso       1.00
      C263          C  0.5746406  0.5924069  0.9706599    0.00000       Uiso       1.00
      C264          C  0.5086578  0.5043436  0.9015359    0.00000       Uiso       1.00
      C265          C  0.5182496  0.5004832  0.8787293    0.00000       Uiso       1.00
      C266          C  0.4304001  0.4913347  0.0364232    0.00000       Uiso       1.00
      C267          C  0.4075929  0.4817457  0.0457791    0.00000       Uiso       1.00
       H85          H  0.4402364  0.5023082  0.0471504    0.00000       Uiso       1.00
       H86          H  0.4004167  0.4855919  0.0634703    0.00000       Uiso       1.00
       H87          H  0.4928519  0.4076619  0.9855223    0.00000       Uiso       1.00
       H88          H  0.4860750  0.4239853  0.9688069    0.00000       Uiso       1.00
       H89          H  0.5427824  0.5251456  0.0225054    0.00000       Uiso       1.00
       H90          H  0.5500431  0.5087810  0.0387942    0.00000       Uiso       1.00
       H91          H  0.5923325  0.5995876  0.9640004    0.00000       Uiso       1.00
       H92          H  0.5760145  0.5597661  0.9572136    0.00000       Uiso       1.00
       H93          H  0.4748515  0.5690054  0.0139214    0.00000       Uiso       1.00
       H94          H  0.4912140  0.6089233  0.0211838    0.00000       Uiso       1.00
       H95          H  0.5143992  0.5071461  0.8715522    0.00000       Uiso       1.00
       H96          H  0.4976758  0.5139242  0.9113707    0.00000       Uiso       1.00
      C268          C  0.5872976  0.8838345  0.0100437    0.00000       Uiso       1.00
      C269          C  0.5985792  0.9049273  0.0084273    0.00000       Uiso       1.00
      C270          C  0.5888878  0.9146160  0.0048946    0.00000       Uiso       1.00
      C271          C  0.5662047  0.8725528  0.0084273    0.00000       Uiso       1.00
      C272          C  0.5564228  0.8822184  0.0050358    0.00000       Uiso       1.00
      C273          C  0.5675687  0.9034535  0.0030690    0.00000       Uiso       1.00
      C274          C  0.5389069  0.1846373  0.0584305    0.00000       Uiso       1.00
      C275          C  0.5372906  0.1732100  0.0697122    0.00000       Uiso       1.00
      C276          C  0.5338991  0.1503712  0.0600471    0.00000       Uiso       1.00
      C277          C  0.5372906  0.1732100  0.0373378    0.00000       Uiso       1.00
      C278          C  0.5337578  0.1502971  0.0276492    0.00000       Uiso       1.00
      C279          C  0.5319317  0.1383161  0.0388130    0.00000       Uiso       1.00
      C280          C  0.2864919  0.9322214  0.0584304    0.00000       Uiso       1.00
      C281          C  0.2979194  0.9338377  0.0373376    0.00000       Uiso       1.00
      C282          C  0.3207586  0.9372321  0.0275569    0.00000       Uiso       1.00
      C283          C  0.2979194  0.9338377  0.0697121    0.00000       Uiso       1.00
      C284          C  0.3208328  0.9373742  0.0600225    0.00000       Uiso       1.00
      C285          C  0.3328149  0.9392024  0.0387040    0.00000       Uiso       1.00
      C286          C  0.5872983  0.8838350  0.7576274    0.00000       Uiso       1.00
      C287          C  0.5662054  0.8725533  0.7690548    0.00000       Uiso       1.00
      C288          C  0.5565164  0.8822447  0.7919675    0.00000       Uiso       1.00
      C289          C  0.5985799  0.9049278  0.7690548    0.00000       Uiso       1.00
      C290          C  0.5889139  0.9147099  0.7918934    0.00000       Uiso       1.00
      C291          C  0.5676789  0.9035639  0.8039489    0.00000       Uiso       1.00
      C292          C  0.4999997  0.9711352  0.9711344    0.00000       Uiso       1.00
       F49          F  0.6210534  0.9172900  0.0101744    0.00000       Uiso       1.00
       F50          F  0.5538427  0.8500793  0.7571964    0.00000       Uiso       1.00
       F51          F  0.5390376  0.1850683  0.0921862    0.00000       Uiso       1.00
       F52          F  0.2860609  0.9320906  0.0249749    0.00000       Uiso       1.00
       F53          F  0.5538421  0.8500788  0.0101744    0.00000       Uiso       1.00
       F54          F  0.5390376  0.1850683  0.0249750    0.00000       Uiso       1.00
       F55          F  0.2860610  0.9320906  0.0921861    0.00000       Uiso       1.00
       F56          F  0.6210541  0.9172905  0.7571964    0.00000       Uiso       1.00
       F57          F  0.6018899  0.9368301  0.0025493    0.00000       Uiso       1.00
       F58          F  0.5337064  0.8696061  0.0039461    0.00000       Uiso       1.00
       F59          F  0.6015267  0.9374260  0.8030868    0.00000       Uiso       1.00
       F60          F  0.5343035  0.8692409  0.8035248    0.00000       Uiso       1.00
       F61          F  0.5328081  0.1391779  0.0726607    0.00000       Uiso       1.00
       F62          F  0.5314112  0.1387417  0.0054358    0.00000       Uiso       1.00
       F63          F  0.3323851  0.9397244  0.0730323    0.00000       Uiso       1.00
       F64          F  0.3319543  0.9383275  0.0048426    0.00000       Uiso       1.00
      C293          C  0.5570983  0.9136919  0.9990309    0.00000       Uiso       1.00
      C294          C  0.5615165  0.9367470  0.0074161    0.00000       Uiso       1.00
      C295          C  0.5519114  0.9462852  0.0035609    0.00000       Uiso       1.00
      C296          C  0.5425412  0.9004641  0.9866880    0.00000       Uiso       1.00
      C297          C  0.5326836  0.9097807  0.9828964    0.00000       Uiso       1.00
      C298          C  0.5374025  0.9327671  0.9913120    0.00000       Uiso       1.00
       H97          H  0.5390939  0.8828498  0.9796317    0.00000       Uiso       1.00
       H98          H  0.5722410  0.9473552  0.0172374    0.00000       Uiso       1.00
      C299          C  0.5278940  0.1135712  0.0285775    0.00000       Uiso       1.00
      C300          C  0.5155427  0.0998990  0.0418060    0.00000       Uiso       1.00
      C301          C  0.5117517  0.0769338  0.0324906    0.00000       Uiso       1.00
      C302          C  0.5362875  0.1033205  0.0055239    0.00000       Uiso       1.00
      C303          C  0.5324337  0.0803240  0.9959870    0.00000       Uiso       1.00
      C304          C  0.5201764  0.0670837  0.0095054    0.00000       Uiso       1.00
       H99          H  0.5461177  0.1132545  0.9949114    0.00000       Uiso       1.00
      H100          H  0.5084794  0.1070097  0.0594206    0.00000       Uiso       1.00
      C305          C  0.3575612  0.9432433  0.0282325    0.00000       Uiso       1.00
      C306          C  0.3712313  0.9555868  0.0136748    0.00000       Uiso       1.00
      C307          C  0.3941992  0.9593787  0.0038143    0.00000       Uiso       1.00
      C308          C  0.3678137  0.9348585  0.0326498    0.00000       Uiso       1.00
      C309          C  0.3908107  0.9387147  0.0230449    0.00000       Uiso       1.00
      C310          C  0.4040512  0.9509619  0.0085345    0.00000       Uiso       1.00
      H101          H  0.3578826  0.9250360  0.0433708    0.00000       Uiso       1.00
      H102          H  0.3641128  0.9626421  0.0102314    0.00000       Uiso       1.00
      C311          C  0.5574413  0.9140350  0.8286949    0.00000       Uiso       1.00
      C312          C  0.5343867  0.9096229  0.8389458    0.00000       Uiso       1.00
      C313          C  0.5248483  0.9192260  0.8619442    0.00000       Uiso       1.00
      C314          C  0.5706688  0.9285858  0.8423674    0.00000       Uiso       1.00
      C315          C  0.5613521  0.9384439  0.8653328    0.00000       Uiso       1.00
      C316          C  0.5383666  0.9337295  0.8751838    0.00000       Uiso       1.00
      H103          H  0.5882826  0.9320282  0.8352560    0.00000       Uiso       1.00
      H104          H  0.5237820  0.8989061  0.8290046    0.00000       Uiso       1.00
      C317          C  0.5019441  0.9145483  0.8720250    0.00000       Uiso       1.00
      C318          C  0.4925754  0.9238986  0.8948882    0.00000       Uiso       1.00
      C319          C  0.5405861  0.0702441  0.9730824    0.00000       Uiso       1.00
      C320          C  0.5364450  0.0473818  0.9637140    0.00000       Uiso       1.00
      H105          H  0.5500747  0.0800564  0.9623504    0.00000       Uiso       1.00
      H106          H  0.5428150  0.0401453  0.9459906    0.00000       Uiso       1.00
      H107          H  0.4912158  0.9034920  0.8622096    0.00000       Uiso       1.00
      H108          H  0.4748524  0.9197809  0.9021285    0.00000       Uiso       1.00
      C321          C  0.5277243  0.9422592  0.9873248    0.00000       Uiso       1.00
      C322          C  0.5327604  0.9652637  0.9953541    0.00000       Uiso       1.00
      C323          C  0.5236035  0.9746574  0.9907995    0.00000       Uiso       1.00
      C324          C  0.5132997  0.9287490  0.9750193    0.00000       Uiso       1.00
      C325          C  0.5040285  0.9382915  0.9708344    0.00000       Uiso       1.00
      C326          C  0.5087992  0.9614227  0.9786269    0.00000       Uiso       1.00
      H109          H  0.4898266  0.9977447  0.0145940    0.00000       Uiso       1.00
      H110          H  0.4673323  0.9459466  0.9998566    0.00000       Uiso       1.00
      C327          C  0.5161911  0.0439273  0.0000128    0.00000       Uiso       1.00
      C328          C  0.5038778  0.0307057  0.0135226    0.00000       Uiso       1.00
      C329          C  0.4996936  0.0077064  0.0039803    0.00000       Uiso       1.00
      C330          C  0.5242314  0.0339895  0.9770070    0.00000       Uiso       1.00
      C331          C  0.5196753  0.0108837  0.9676134    0.00000       Uiso       1.00
      C332          C  0.5074930  0.9971398  0.9808479    0.00000       Uiso       1.00
      H111          H  0.5287141  0.9923782  0.9963285    0.00000       Uiso       1.00
      H112          H  0.5434602  0.9778316  0.9445184    0.00000       Uiso       1.00
      C333          C  0.4272079  0.9549459  0.9988573    0.00000       Uiso       1.00
      C334          C  0.4404284  0.9672495  0.9844299    0.00000       Uiso       1.00
      C335          C  0.4634275  0.9714332  0.9751588    0.00000       Uiso       1.00
      C336          C  0.4371451  0.9469154  0.0038966    0.00000       Uiso       1.00
      C337          C  0.4602521  0.9514722  0.9947414    0.00000       Uiso       1.00
      C338          C  0.4739948  0.9636433  0.9799346    0.00000       Uiso       1.00
      H113          H  0.4787534  0.9424294  0.9384718    0.00000       Uiso       1.00
      H114          H  0.4933145  0.9276769  0.9609737    0.00000       Uiso       1.00
      C339          C  0.5288745  0.9434075  0.8983409    0.00000       Uiso       1.00
      C340          C  0.5058684  0.9383743  0.9082805    0.00000       Uiso       1.00
      C341          C  0.4964749  0.9475309  0.9313875    0.00000       Uiso       1.00
      C342          C  0.5423858  0.9578325  0.9115611    0.00000       Uiso       1.00
      C343          C  0.5328440  0.9671072  0.9345602    0.00000       Uiso       1.00
      C344          C  0.5097116  0.9623345  0.9451293    0.00000       Uiso       1.00
      H115          H  0.4733911  0.9812859  0.9644362    0.00000       Uiso       1.00
      H116          H  0.5252125  0.0038030  0.9498917    0.00000       Uiso       1.00
      C345          C  0.4237529  0.9347116  0.0183778    0.00000       Uiso       1.00
      C346          C  0.4008900  0.9305700  0.0277282    0.00000       Uiso       1.00
      C347          C  0.4304025  0.9754761  0.9797841    0.00000       Uiso       1.00
      C348          C  0.4075969  0.9716175  0.9893721    0.00000       Uiso       1.00
      C349          C  0.5472412  0.9785576  0.0075587    0.00000       Uiso       1.00
      C350          C  0.5565947  0.9691904  0.0117016    0.00000       Uiso       1.00
      C351          C  0.5086526  0.9058500  0.9667944    0.00000       Uiso       1.00
      C352          C  0.5182407  0.8964936  0.9706582    0.00000       Uiso       1.00
      C353          C  0.5652842  0.9624763  0.9015341    0.00000       Uiso       1.00
      C354          C  0.5746387  0.9528846  0.8787275    0.00000       Uiso       1.00
      C355          C  0.4956434  0.0407316  0.0364209    0.00000       Uiso       1.00
      C356          C  0.4995055  0.0635387  0.0457768    0.00000       Uiso       1.00
      H117          H  0.4860533  0.0308954  0.0471481    0.00000       Uiso       1.00
      H118          H  0.4928365  0.0707147  0.0634680    0.00000       Uiso       1.00
      H119          H  0.4004214  0.9782816  0.9855193    0.00000       Uiso       1.00
      H120          H  0.4402373  0.9850585  0.9688040    0.00000       Uiso       1.00
      H121          H  0.4309912  0.9283499  0.0225030    0.00000       Uiso       1.00
      H122          H  0.3910770  0.9210892  0.0387915    0.00000       Uiso       1.00
      H123          H  0.5143892  0.8788018  0.9639987    0.00000       Uiso       1.00
      H124          H  0.4976725  0.8951197  0.9572117    0.00000       Uiso       1.00
      H125          H  0.5513658  0.9962805  0.0139197    0.00000       Uiso       1.00
      H126          H  0.5676588  0.9799181  0.0211824    0.00000       Uiso       1.00
      H127          H  0.5923293  0.9567350  0.8715504    0.00000       Uiso       1.00
      H128          H  0.5760121  0.9734581  0.9113689    0.00000       Uiso       1.00
      C357          C  0.0100448  0.8838370  0.5873006    0.00000       Uiso       1.00
      C358          C  0.0084286  0.8725553  0.5662078    0.00000       Uiso       1.00
      C359          C  0.0048959  0.8822467  0.5565189    0.00000       Uiso       1.00
      C360          C  0.0084285  0.9049297  0.5985821    0.00000       Uiso       1.00
      C361          C  0.0050370  0.9147114  0.5889164    0.00000       Uiso       1.00
      C362          C  0.0030702  0.9035656  0.5676814    0.00000       Uiso       1.00
      C363          C  0.0584331  0.9322253  0.2864965    0.00000       Uiso       1.00
      C364          C  0.0697149  0.9338416  0.2979239    0.00000       Uiso       1.00
      C365          C  0.0600496  0.9372333  0.3207627    0.00000       Uiso       1.00
      C366          C  0.0373402  0.9338415  0.2979237    0.00000       Uiso       1.00
      C367          C  0.0276515  0.9373742  0.3208366    0.00000       Uiso       1.00
      C368          C  0.0388154  0.9392005  0.3328177    0.00000       Uiso       1.00
      C369          C  0.0584314  0.1846399  0.5389109    0.00000       Uiso       1.00
      C370          C  0.0373385  0.1732124  0.5372946    0.00000       Uiso       1.00
      C371          C  0.0275576  0.1503733  0.5339003    0.00000       Uiso       1.00
      C372          C  0.0697131  0.1732126  0.5372947    0.00000       Uiso       1.00
      C373          C  0.0600234  0.1502994  0.5337585    0.00000       Uiso       1.00
      C374          C  0.0387049  0.1383172  0.5319301    0.00000       Uiso       1.00
      C375          C  0.7576280  0.8838357  0.5872993    0.00000       Uiso       1.00
      C376          C  0.7690554  0.9049286  0.5985810    0.00000       Uiso       1.00
      C377          C  0.7919682  0.9146175  0.5888895    0.00000       Uiso       1.00
      C378          C  0.7690555  0.8725542  0.5662066    0.00000       Uiso       1.00
      C379          C  0.7918943  0.8822202  0.5564245    0.00000       Uiso       1.00
      C380          C  0.8039499  0.9034551  0.5675704    0.00000       Uiso       1.00
      C381          C  0.9711367  0.9711344  0.4999991    0.00000       Uiso       1.00
       F65          F  0.0101757  0.8500814  0.5538452    0.00000       Uiso       1.00
       F66          F  0.7571969  0.9172912  0.6210549    0.00000       Uiso       1.00
       F67          F  0.0921890  0.9320948  0.2860657    0.00000       Uiso       1.00
       F68          F  0.0249757  0.1850707  0.5390415    0.00000       Uiso       1.00
       F69          F  0.0101755  0.9172924  0.6210561    0.00000       Uiso       1.00
       F70          F  0.0249774  0.9320944  0.2860653    0.00000       Uiso       1.00
       F71          F  0.0921872  0.1850710  0.5390418    0.00000       Uiso       1.00
       F72          F  0.7571971  0.8500803  0.5538440    0.00000       Uiso       1.00
       F73          F  0.0025506  0.8692446  0.5343049    0.00000       Uiso       1.00
       F74          F  0.0039472  0.9374278  0.6015286    0.00000       Uiso       1.00
       F75          F  0.8030878  0.8696074  0.5337085    0.00000       Uiso       1.00
       F76          F  0.8035256  0.9368303  0.6018932    0.00000       Uiso       1.00
       F77          F  0.0726632  0.9383243  0.3319561    0.00000       Uiso       1.00
       F78          F  0.0054380  0.9397207  0.3323919    0.00000       Uiso       1.00
       F79          F  0.0730333  0.1387473  0.5314084    0.00000       Uiso       1.00
       F80          F  0.0048433  0.1391776  0.5328049    0.00000       Uiso       1.00
      C382          C  0.9990330  0.9140368  0.5574432    0.00000       Uiso       1.00
      C383          C  0.0074175  0.9096176  0.5343877    0.00000       Uiso       1.00
      C384          C  0.0035623  0.9192225  0.5248492    0.00000       Uiso       1.00
      C385          C  0.9866899  0.9285937  0.5706710    0.00000       Uiso       1.00
      C386          C  0.9828985  0.9384512  0.5613542    0.00000       Uiso       1.00
      C387          C  0.9913142  0.9337323  0.5383677    0.00000       Uiso       1.00
      H129          H  0.9796336  0.9320410  0.5882853    0.00000       Uiso       1.00
      H130          H  0.0172388  0.8988932  0.5237796    0.00000       Uiso       1.00
      C388          C  0.0285797  0.9432382  0.3575626    0.00000       Uiso       1.00
      C389          C  0.0418083  0.9555895  0.3712348    0.00000       Uiso       1.00
      C390          C  0.0324927  0.9593806  0.3942000    0.00000       Uiso       1.00
      C391          C  0.0055259  0.9348447  0.3678133    0.00000       Uiso       1.00
      C392          C  0.9959898  0.9386995  0.3908103    0.00000       Uiso       1.00
      C393          C  0.0095073  0.9509559  0.4040501    0.00000       Uiso       1.00
      H131          H  0.9949142  0.9250154  0.3578798    0.00000       Uiso       1.00
      H132          H  0.0594230  0.9626528  0.3641241    0.00000       Uiso       1.00
      C394          C  0.0282333  0.1135710  0.5278895    0.00000       Uiso       1.00
      C395          C  0.0136755  0.0999010  0.5155460    0.00000       Uiso       1.00
      C396          C  0.0038150  0.0769332  0.5117543    0.00000       Uiso       1.00
      C397          C  0.0326506  0.1033187  0.5362744    0.00000       Uiso       1.00
      C398          C  0.0230455  0.0803219  0.5324184    0.00000       Uiso       1.00
      C399          C  0.0085351  0.0670813  0.5201711    0.00000       Uiso       1.00
      H133          H  0.0433716  0.1132498  0.5460970    0.00000       Uiso       1.00
      H134          H  0.0102321  0.1070193  0.5084906    0.00000       Uiso       1.00
      C400          C  0.8286960  0.9136928  0.5570993    0.00000       Uiso       1.00
      C401          C  0.8389470  0.9367473  0.5615112    0.00000       Uiso       1.00
      C402          C  0.8619456  0.9462856  0.5519082    0.00000       Uiso       1.00
      C403          C  0.8423685  0.9004654  0.5425487    0.00000       Uiso       1.00
      C404          C  0.8653343  0.9097821  0.5326906    0.00000       Uiso       1.00
      C405          C  0.8751853  0.9327675  0.5374048    0.00000       Uiso       1.00
      H135          H  0.8352572  0.8828518  0.5391064    0.00000       Uiso       1.00
      H136          H  0.8290057  0.9473518  0.5722280    0.00000       Uiso       1.00
      C406          C  0.8720264  0.9691898  0.5565857    0.00000       Uiso       1.00
      C407          C  0.8948898  0.9785584  0.5472354    0.00000       Uiso       1.00
      C408          C  0.9730850  0.9305471  0.4008903    0.00000       Uiso       1.00
      C409          C  0.9637164  0.9346882  0.4237525    0.00000       Uiso       1.00
      H137          H  0.9623529  0.9210584  0.3910779    0.00000       Uiso       1.00
      H138          H  0.9459928  0.9283181  0.4309891    0.00000       Uiso       1.00
      H139          H  0.8622110  0.9799178  0.5676419    0.00000       Uiso       1.00
      H140          H  0.9021301  0.9962812  0.5513530    0.00000       Uiso       1.00
      C410          C  0.9873270  0.9434103  0.5288755    0.00000       Uiso       1.00
      C411          C  0.9953564  0.9383742  0.5058711    0.00000       Uiso       1.00
      C412          C  0.9908019  0.9475309  0.4964772    0.00000       Uiso       1.00
      C413          C  0.9750214  0.9578347  0.5423855    0.00000       Uiso       1.00
      C414          C  0.9708365  0.9671058  0.5328429    0.00000       Uiso       1.00
      C415          C  0.9786291  0.9623351  0.5097117    0.00000       Uiso       1.00
      H141          H  0.0145957  0.9813066  0.4733890    0.00000       Uiso       1.00
      H142          H  0.9998580  0.0038018  0.5251875    0.00000       Uiso       1.00
      C416          C  0.0000146  0.9549412  0.4272065    0.00000       Uiso       1.00
      C417          C  0.0135244  0.9672544  0.4404281    0.00000       Uiso       1.00
      C418          C  0.0039820  0.9714386  0.4634275    0.00000       Uiso       1.00
      C419          C  0.9770095  0.9469017  0.4371448    0.00000       Uiso       1.00
      C420          C  0.9676157  0.9514579  0.4602506    0.00000       Uiso       1.00
      C421          C  0.9808502  0.9636412  0.4739945    0.00000       Uiso       1.00
      H143          H  0.9963309  0.9424204  0.4787564    0.00000       Uiso       1.00
      H144          H  0.9445205  0.9276742  0.4933029    0.00000       Uiso       1.00
      C422          C  0.9988587  0.0439258  0.5161878    0.00000       Uiso       1.00
      C423          C  0.9844313  0.0307053  0.5038842    0.00000       Uiso       1.00
      C424          C  0.9751601  0.0077063  0.4997007    0.00000       Uiso       1.00
      C425          C  0.0038972  0.0339878  0.5242180    0.00000       Uiso       1.00
      C426          C  0.9947428  0.0108819  0.5196619    0.00000       Uiso       1.00
      C427          C  0.9799368  0.9971392  0.5074908    0.00000       Uiso       1.00
      H145          H  0.9384737  0.9923805  0.5287046    0.00000       Uiso       1.00
      H146          H  0.9609758  0.9778197  0.5434574    0.00000       Uiso       1.00
      C428          C  0.8983426  0.9422596  0.5277268    0.00000       Uiso       1.00
      C429          C  0.9082822  0.9652655  0.5327598    0.00000       Uiso       1.00
      C430          C  0.9313894  0.9746590  0.5236032    0.00000       Uiso       1.00
      C431          C  0.9115629  0.9287485  0.5133020    0.00000       Uiso       1.00
      C432          C  0.9345623  0.9382902  0.5040272    0.00000       Uiso       1.00
      C433          C  0.9451314  0.9614224  0.5087997    0.00000       Uiso       1.00
      H147          H  0.9644384  0.9977426  0.4898480    0.00000       Uiso       1.00
      H148          H  0.9498938  0.9459206  0.4673313    0.00000       Uiso       1.00
      C434          C  0.0183784  0.0473799  0.5364218    0.00000       Uiso       1.00
      C435          C  0.0277289  0.0702427  0.5405632    0.00000       Uiso       1.00
      C436          C  0.9797854  0.0407310  0.4956575    0.00000       Uiso       1.00
      C437          C  0.9893736  0.0635365  0.4995160    0.00000       Uiso       1.00
      C438          C  0.0075603  0.9238926  0.4925767    0.00000       Uiso       1.00
      C439          C  0.0117031  0.9145393  0.5019442    0.00000       Uiso       1.00
      C440          C  0.9667964  0.9624819  0.5652846    0.00000       Uiso       1.00
      C441          C  0.9706602  0.9528939  0.5746411    0.00000       Uiso       1.00
      C442          C  0.9015357  0.9058501  0.5086583    0.00000       Uiso       1.00
      C443          C  0.8787290  0.8964956  0.5182500    0.00000       Uiso       1.00
      C444          C  0.0364229  0.9754889  0.4304022    0.00000       Uiso       1.00
      C445          C  0.0457789  0.9716268  0.4075952    0.00000       Uiso       1.00
      H149          H  0.0471502  0.9850789  0.4402384    0.00000       Uiso       1.00
      H150          H  0.0634703  0.9782957  0.4004191    0.00000       Uiso       1.00
      H151          H  0.9855207  0.0707118  0.4928518    0.00000       Uiso       1.00
      H152          H  0.9688054  0.0308962  0.4860751    0.00000       Uiso       1.00
      H153          H  0.0225036  0.0401418  0.5427836    0.00000       Uiso       1.00
      H154          H  0.0387922  0.0800557  0.5500441    0.00000       Uiso       1.00
      H155          H  0.9640006  0.9567454  0.5923330    0.00000       Uiso       1.00
      H156          H  0.9572136  0.9734619  0.5760147    0.00000       Uiso       1.00
      H157          H  0.0139214  0.9197680  0.4748538    0.00000       Uiso       1.00
      H158          H  0.0211840  0.9034753  0.4912165    0.00000       Uiso       1.00
      H159          H  0.8715520  0.8788052  0.5143996    0.00000       Uiso       1.00
      H160          H  0.9113707  0.8951224  0.4976766    0.00000       Uiso       1.00
      C446          C  0.7576274  0.8838354  0.0100445    0.00000       Uiso       1.00
      C447          C  0.7690548  0.8725539  0.0084283    0.00000       Uiso       1.00
      C448          C  0.7919678  0.8822453  0.0048957    0.00000       Uiso       1.00
      C449          C  0.7690547  0.9049281  0.0084281    0.00000       Uiso       1.00
      C450          C  0.7918938  0.9147100  0.0050368    0.00000       Uiso       1.00
      C451          C  0.8039498  0.9035643  0.0030701    0.00000       Uiso       1.00
      C452          C  0.0584329  0.9322251  0.0584341    0.00000       Uiso       1.00
      C453          C  0.0373400  0.9338413  0.0697157    0.00000       Uiso       1.00
      C454          C  0.0275579  0.9372329  0.0600505    0.00000       Uiso       1.00
      C455          C  0.0697146  0.9338415  0.0373414    0.00000       Uiso       1.00
      C456          C  0.0600231  0.9373742  0.0276527    0.00000       Uiso       1.00
      C457          C  0.0387043  0.9392002  0.0388164    0.00000       Uiso       1.00
      C458          C  0.0584309  0.1846396  0.0584328    0.00000       Uiso       1.00
      C459          C  0.0697126  0.1732123  0.0373401    0.00000       Uiso       1.00
      C460          C  0.0600487  0.1503731  0.0275593    0.00000       Uiso       1.00
      C461          C  0.0373380  0.1732121  0.0697144    0.00000       Uiso       1.00
      C462          C  0.0276508  0.1502989  0.0600248    0.00000       Uiso       1.00
      C463          C  0.0388156  0.1383169  0.0387064    0.00000       Uiso       1.00
      C464          C  0.0100450  0.8838371  0.7576294    0.00000       Uiso       1.00
      C465          C  0.0084286  0.9049298  0.7690567    0.00000       Uiso       1.00
      C466          C  0.0048963  0.9146187  0.7919694    0.00000       Uiso       1.00
      C467          C  0.0084287  0.8725555  0.7690569    0.00000       Uiso       1.00
      C468          C  0.0050381  0.8822214  0.7918956    0.00000       Uiso       1.00
      C469          C  0.0030714  0.9034562  0.8039510    0.00000       Uiso       1.00
      C470          C  0.9711357  0.9711345  0.9711366    0.00000       Uiso       1.00
       F81          F  0.7571965  0.8500798  0.0101754    0.00000       Uiso       1.00
       F82          F  0.0101756  0.9172924  0.7571983    0.00000       Uiso       1.00
       F83          F  0.0249773  0.9320942  0.0921897    0.00000       Uiso       1.00
       F84          F  0.0921867  0.1850707  0.0249775    0.00000       Uiso       1.00
       F85          F  0.7571962  0.9172907  0.0101750    0.00000       Uiso       1.00
       F86          F  0.0921888  0.9320945  0.0249789    0.00000       Uiso       1.00
       F87          F  0.0249753  0.1850704  0.0921884    0.00000       Uiso       1.00
       F88          F  0.0101758  0.8500816  0.7571986    0.00000       Uiso       1.00
       F89          F  0.8035251  0.8692433  0.0025505    0.00000       Uiso       1.00
       F90          F  0.8030875  0.9374264  0.0039470    0.00000       Uiso       1.00
       F91          F  0.0039481  0.8696086  0.8030891    0.00000       Uiso       1.00
       F92          F  0.0025478  0.9368313  0.8035266    0.00000       Uiso       1.00
       F93          F  0.0048420  0.9383238  0.0726639    0.00000       Uiso       1.00
       F94          F  0.0730277  0.9397208  0.0054394    0.00000       Uiso       1.00
       F95          F  0.0054390  0.1387466  0.0730345    0.00000       Uiso       1.00
       F96          F  0.0726627  0.1391776  0.0048452    0.00000       Uiso       1.00
      C471          C  0.8286973  0.9140360  0.9990322    0.00000       Uiso       1.00
      C472          C  0.8389483  0.9096165  0.0074176    0.00000       Uiso       1.00
      C473          C  0.8619469  0.9192215  0.0035625    0.00000       Uiso       1.00
      C474          C  0.8423695  0.9285932  0.9866892    0.00000       Uiso       1.00
      C475          C  0.8653353  0.9384508  0.9828979    0.00000       Uiso       1.00
      C476          C  0.8751872  0.9337319  0.9913136    0.00000       Uiso       1.00
      H161          H  0.8352587  0.9320404  0.9796329    0.00000       Uiso       1.00
      H162          H  0.8290108  0.8988920  0.0172388    0.00000       Uiso       1.00
      C477          C  0.0282327  0.9432380  0.0285807    0.00000       Uiso       1.00
      C478          C  0.0136831  0.9555891  0.0418091    0.00000       Uiso       1.00
      C479          C  0.0038244  0.9593801  0.0324935    0.00000       Uiso       1.00
      C480          C  0.0326421  0.9348446  0.0055270    0.00000       Uiso       1.00
      C481          C  0.0230370  0.9386999  0.9959900    0.00000       Uiso       1.00
      C482          C  0.0085350  0.9509556  0.0095082    0.00000       Uiso       1.00
      H163          H  0.0433592  0.9250159  0.9949146    0.00000       Uiso       1.00
      H164          H  0.0102424  0.9626523  0.0594237    0.00000       Uiso       1.00
      C483          C  0.0285817  0.1135707  0.0282349    0.00000       Uiso       1.00
      C484          C  0.0418131  0.0999008  0.0136773    0.00000       Uiso       1.00
      C485          C  0.0324976  0.0769330  0.0038168    0.00000       Uiso       1.00
      C486          C  0.0055272  0.1033183  0.0326520    0.00000       Uiso       1.00
      C487          C  0.9959915  0.0803214  0.0230471    0.00000       Uiso       1.00
      C488          C  0.0095087  0.0670810  0.0085368    0.00000       Uiso       1.00
      H165          H  0.9949147  0.1132493  0.0433729    0.00000       Uiso       1.00
      H166          H  0.0594302  0.1070193  0.0102340    0.00000       Uiso       1.00
      C489          C  0.9990342  0.9136938  0.8286970    0.00000       Uiso       1.00
      C490          C  0.0074256  0.9367482  0.8389480    0.00000       Uiso       1.00
      C491          C  0.0035684  0.9462864  0.8619463    0.00000       Uiso       1.00
      C492          C  0.9866850  0.9004663  0.8423695    0.00000       Uiso       1.00
      C493          C  0.9828941  0.9097828  0.8653350    0.00000       Uiso       1.00
      C494          C  0.9913142  0.9327682  0.8751860    0.00000       Uiso       1.00
      H167          H  0.9796250  0.8828526  0.8352581    0.00000       Uiso       1.00
      H168          H  0.0172546  0.9473528  0.8290067    0.00000       Uiso       1.00
      C495          C  0.0117142  0.9691905  0.8720272    0.00000       Uiso       1.00
      C496          C  0.0075698  0.9785590  0.8948904    0.00000       Uiso       1.00
      C497          C  0.0277094  0.9305475  0.9730853    0.00000       Uiso       1.00
      C498          C  0.0183566  0.9346887  0.9637168    0.00000       Uiso       1.00
      H169          H  0.0387652  0.9210590  0.9623534    0.00000       Uiso       1.00
      H170          H  0.0224736  0.9283187  0.9459934    0.00000       Uiso       1.00
      H171          H  0.0212014  0.9799187  0.8622118    0.00000       Uiso       1.00
      H172          H  0.0139346  0.9962819  0.9021307    0.00000       Uiso       1.00
      C499          C  0.8983447  0.9434100  0.9873266    0.00000       Uiso       1.00
      C500          C  0.9082837  0.9383739  0.9953560    0.00000       Uiso       1.00
      C501          C  0.9313889  0.9475308  0.9908016    0.00000       Uiso       1.00
      C502          C  0.9115645  0.9578345  0.9750211    0.00000       Uiso       1.00
      C503          C  0.9345632  0.9671058  0.9708363    0.00000       Uiso       1.00
      C504          C  0.9451312  0.9623351  0.9786289    0.00000       Uiso       1.00
      H173          H  0.9644580  0.9813060  0.0145963    0.00000       Uiso       1.00
      H174          H  0.9498910  0.0038017  0.9998586    0.00000       Uiso       1.00
      C505          C  0.9988564  0.9549409  0.0000155    0.00000       Uiso       1.00
      C506          C  0.9844382  0.9672540  0.0135252    0.00000       Uiso       1.00
      C507          C  0.9751653  0.9714382  0.0039827    0.00000       Uiso       1.00
      C508          C  0.0038848  0.9469022  0.9770097    0.00000       Uiso       1.00
      C509          C  0.9947288  0.9514583  0.9676159    0.00000       Uiso       1.00
      C510          C  0.9799336  0.9636413  0.9808503    0.00000       Uiso       1.00
      H175          H  0.9384702  0.9424202  0.9963306    0.00000       Uiso       1.00
      H176          H  0.9609879  0.9276744  0.9445207    0.00000       Uiso       1.00
      C511          C  0.0000140  0.0439260  0.9988595    0.00000       Uiso       1.00
      C512          C  0.0135245  0.0307056  0.9844323    0.00000       Uiso       1.00
      C513          C  0.0039803  0.0077066  0.9751611    0.00000       Uiso       1.00
      C514          C  0.9770063  0.0339874  0.0038988    0.00000       Uiso       1.00
      C515          C  0.9676121  0.0108820  0.9947435    0.00000       Uiso       1.00
      C516          C  0.9808484  0.9971393  0.9799368    0.00000       Uiso       1.00
      H177          H  0.9963389  0.9923809  0.9384739    0.00000       Uiso       1.00
      H178          H  0.9445232  0.9778197  0.9609756    0.00000       Uiso       1.00
      C517          C  0.9873270  0.9422602  0.8983431    0.00000       Uiso       1.00
      C518          C  0.9953603  0.9652661  0.9082827    0.00000       Uiso       1.00
      C519          C  0.9908032  0.9746595  0.9313897    0.00000       Uiso       1.00
      C520          C  0.9750206  0.9287490  0.9115633    0.00000       Uiso       1.00
      C521          C  0.9708377  0.9382906  0.9345625    0.00000       Uiso       1.00
      C522          C  0.9786283  0.9614228  0.9451316    0.00000       Uiso       1.00
      H179          H  0.0145930  0.9977430  0.9644387    0.00000       Uiso       1.00
      H180          H  0.9998325  0.9459210  0.9498942    0.00000       Uiso       1.00
      C523          C  0.9637133  0.0473794  0.0183798    0.00000       Uiso       1.00
      C524          C  0.9730842  0.0702422  0.0277303    0.00000       Uiso       1.00
      C525          C  0.0364228  0.0407315  0.9797866    0.00000       Uiso       1.00
      C526          C  0.0457816  0.0635369  0.9893747    0.00000       Uiso       1.00
      C527          C  0.8948917  0.9238917  0.0075606    0.00000       Uiso       1.00
      C528          C  0.8720281  0.9145383  0.0117034    0.00000       Uiso       1.00
      C529          C  0.9015375  0.9624817  0.9667960    0.00000       Uiso       1.00
      C530          C  0.8787292  0.9528936  0.9706597    0.00000       Uiso       1.00
      C531          C  0.9667931  0.9058506  0.9015362    0.00000       Uiso       1.00
      C532          C  0.9706535  0.8964962  0.8787296    0.00000       Uiso       1.00
      C533          C  0.9798001  0.9754883  0.0364235    0.00000       Uiso       1.00
      C534          C  0.9893891  0.9716262  0.0457796    0.00000       Uiso       1.00
      H181          H  0.9688266  0.9850783  0.0471506    0.00000       Uiso       1.00
      H182          H  0.9855428  0.9782951  0.0634708    0.00000       Uiso       1.00
      H183          H  0.0634741  0.0707124  0.9855220    0.00000       Uiso       1.00
      H184          H  0.0471506  0.0308967  0.9688067    0.00000       Uiso       1.00
      H185          H  0.9459881  0.0401411  0.0225049    0.00000       Uiso       1.00
      H186          H  0.9623529  0.0800551  0.0387935    0.00000       Uiso       1.00
      H187          H  0.8715484  0.9567451  0.9640000    0.00000       Uiso       1.00
      H188          H  0.9113700  0.9734617  0.9572133    0.00000       Uiso       1.00
      H189          H  0.9021291  0.9197671  0.0139218    0.00000       Uiso       1.00
      H190          H  0.8622110  0.9034742  0.0211842    0.00000       Uiso       1.00
      H191          H  0.9639906  0.8788058  0.8715526    0.00000       Uiso       1.00
      H192          H  0.9572122  0.8951228  0.9113711    0.00000       Uiso       1.00
        B1          B  0.7325566  0.4585997  0.5985910    0.00000       Uiso       1.00
        B2          B  0.5985895  0.4585990  0.5985903    0.00000       Uiso       1.00
        B3          B  0.5985897  0.4585991  0.7325566    0.00000       Uiso       1.00
      C535          C  0.6619627  0.4571099  0.6234908    0.00000       Uiso       1.00
      C536          C  0.6999364  0.4574959  0.6052152    0.00000       Uiso       1.00
      H193          H  0.6830340  0.4571828  0.5893436    0.00000       Uiso       1.00
        O1          O  0.7199337  0.4581571  0.5882564    0.00000       Uiso       1.00
      C537          C  0.6814905  0.4572638  0.6046647    0.00000       Uiso       1.00
      C538          C  0.6234899  0.4571097  0.6427944    0.00000       Uiso       1.00
      C539          C  0.6052139  0.4574955  0.6234824    0.00000       Uiso       1.00
      H194          H  0.5893424  0.4571824  0.6559432    0.00000       Uiso       1.00
        O2          O  0.5882549  0.4581565  0.6211051    0.00000       Uiso       1.00
      C540          C  0.6046635  0.4572634  0.6422465    0.00000       Uiso       1.00
      C541          C  0.6427938  0.4571098  0.6619633    0.00000       Uiso       1.00
      C542          C  0.6234818  0.4574956  0.6999367    0.00000       Uiso       1.00
      H195          H  0.6559427  0.4571827  0.6830346    0.00000       Uiso       1.00
        O3          O  0.6211045  0.4581567  0.7199340    0.00000       Uiso       1.00
      C543          C  0.6422460  0.4572636  0.6814911    0.00000       Uiso       1.00
      C544          C  0.6427937  0.4571098  0.6234907    0.00000       Uiso       1.00
      C545          C  0.6234816  0.4574956  0.6052149    0.00000       Uiso       1.00
        O4          O  0.6211044  0.4581566  0.5882559    0.00000       Uiso       1.00
      H196          H  0.6559426  0.4571827  0.5893435    0.00000       Uiso       1.00
      C546          C  0.6422459  0.4572636  0.6046645    0.00000       Uiso       1.00
      C547          C  0.6619627  0.4571099  0.6427945    0.00000       Uiso       1.00
      C548          C  0.6999364  0.4574959  0.6234828    0.00000       Uiso       1.00
      H197          H  0.6830341  0.4571829  0.6559436    0.00000       Uiso       1.00
        O5          O  0.7199337  0.4581571  0.6211057    0.00000       Uiso       1.00
      C549          C  0.6814905  0.4572638  0.6422469    0.00000       Uiso       1.00
      C550          C  0.6234898  0.4571097  0.6619633    0.00000       Uiso       1.00
      C551          C  0.6052140  0.4574955  0.6999366    0.00000       Uiso       1.00
      H198          H  0.5893424  0.4571824  0.6830343    0.00000       Uiso       1.00
        O6          O  0.5882550  0.4581565  0.7199339    0.00000       Uiso       1.00
      C552          C  0.6046636  0.4572634  0.6814910    0.00000       Uiso       1.00
        B4          B  0.5985881  0.8725453  0.7325547    0.00000       Uiso       1.00
        B5          B  0.5985885  0.7385795  0.5985890    0.00000       Uiso       1.00
        B6          B  0.7325550  0.8725459  0.5985890    0.00000       Uiso       1.00
      C553          C  0.6234885  0.8283417  0.6619616    0.00000       Uiso       1.00
      C554          C  0.6052126  0.8476534  0.6999348    0.00000       Uiso       1.00
      H199          H  0.5893411  0.8151926  0.6830326    0.00000       Uiso       1.00
        O7          O  0.5882536  0.8500306  0.7199320    0.00000       Uiso       1.00
      C555          C  0.6046622  0.8288893  0.6814892    0.00000       Uiso       1.00
      C556          C  0.6427924  0.8091729  0.6234891    0.00000       Uiso       1.00
      C557          C  0.6234806  0.7711995  0.6052133    0.00000       Uiso       1.00
      H200          H  0.6559414  0.7881019  0.5893419    0.00000       Uiso       1.00
        O8          O  0.6211034  0.7512023  0.5882546    0.00000       Uiso       1.00
      C558          C  0.6422448  0.7896453  0.6046629    0.00000       Uiso       1.00
      C559          C  0.6619613  0.8476456  0.6427928    0.00000       Uiso       1.00
      C560          C  0.6999349  0.8659214  0.6234810    0.00000       Uiso       1.00
      H201          H  0.6830325  0.8817928  0.6559415    0.00000       Uiso       1.00
        O9          O  0.7199323  0.8828804  0.6211037    0.00000       Uiso       1.00
      C561          C  0.6814891  0.8664718  0.6422450    0.00000       Uiso       1.00
      C562          C  0.6234885  0.8091729  0.6427928    0.00000       Uiso       1.00
      C563          C  0.6052128  0.7711995  0.6234810    0.00000       Uiso       1.00
       O10          O  0.5882538  0.7512022  0.6211037    0.00000       Uiso       1.00
      H202          H  0.5893412  0.7881016  0.6559415    0.00000       Uiso       1.00
      C564          C  0.6046623  0.7896451  0.6422450    0.00000       Uiso       1.00
      C565          C  0.6427923  0.8476455  0.6619616    0.00000       Uiso       1.00
      C566          C  0.6234803  0.8659211  0.6999348    0.00000       Uiso       1.00
      H203          H  0.6559412  0.8817927  0.6830326    0.00000       Uiso       1.00
       O11          O  0.6211030  0.8828800  0.7199320    0.00000       Uiso       1.00
      C567          C  0.6422445  0.8664716  0.6814892    0.00000       Uiso       1.00
      C568          C  0.6619614  0.8283419  0.6234891    0.00000       Uiso       1.00
      C569          C  0.6999350  0.8476539  0.6052133    0.00000       Uiso       1.00
      H204          H  0.6830327  0.8151931  0.5893419    0.00000       Uiso       1.00
       O12          O  0.7199323  0.8500311  0.5882545    0.00000       Uiso       1.00
      C570          C  0.6814892  0.8288897  0.6046629    0.00000       Uiso       1.00
      C571          C  0.5429366  0.3767630  0.2287427    0.00000       Uiso       1.00
      C572          C  0.5440654  0.3580320  0.2098740    0.00000       Uiso       1.00
      C573          C  0.5462593  0.3400542  0.2092743    0.00000       Uiso       1.00
      C574          C  0.5462495  0.3210042  0.1906257    0.00000       Uiso       1.00
      C575          C  0.5427952  0.3190060  0.1725880    0.00000       Uiso       1.00
      C576          C  0.5402842  0.3372074  0.1736852    0.00000       Uiso       1.00
      C577          C  0.5424436  0.3572976  0.1913158    0.00000       Uiso       1.00
       O13          O  0.5434097  0.3797687  0.2485282    0.00000       Uiso       1.00
      H205          H  0.5480031  0.3408552  0.2233583    0.00000       Uiso       1.00
      H206          H  0.5487304  0.3078932  0.1907063    0.00000       Uiso       1.00
      H207          H  0.5352246  0.3353184  0.1614261    0.00000       Uiso       1.00
      C578          C  0.5429944  0.3949191  0.0943495    0.00000       Uiso       1.00
      C579          C  0.5441363  0.3959127  0.1130757    0.00000       Uiso       1.00
      C580          C  0.5463191  0.4154801  0.1310606    0.00000       Uiso       1.00
      C581          C  0.5463029  0.4158660  0.1501112    0.00000       Uiso       1.00
      C582          C  0.5428474  0.3963704  0.1521065    0.00000       Uiso       1.00
      C583          C  0.5403582  0.3767625  0.1338921    0.00000       Uiso       1.00
      C584          C  0.5425268  0.3764696  0.1138014    0.00000       Uiso       1.00
       O14          O  0.5434377  0.4121665  0.0913595    0.00000       Uiso       1.00
      H208          H  0.5480484  0.4305058  0.1302713    0.00000       Uiso       1.00
      H209          H  0.5487728  0.4315358  0.1632269    0.00000       Uiso       1.00
      H210          H  0.5353004  0.3613287  0.1357683    0.00000       Uiso       1.00
      C585          C  0.5429749  0.2424135  0.0762293    0.00000       Uiso       1.00
      C586          C  0.5441338  0.2612912  0.0752309    0.00000       Uiso       1.00
      C587          C  0.5463473  0.2618947  0.0556532    0.00000       Uiso       1.00
      C588          C  0.5463585  0.2805506  0.0552531    0.00000       Uiso       1.00
      C589          C  0.5429059  0.2985910  0.0747452    0.00000       Uiso       1.00
      C590          C  0.5403870  0.2974933  0.0943654    0.00000       Uiso       1.00
      C591          C  0.5425184  0.2798505  0.0946741    0.00000       Uiso       1.00
       O15          O  0.5434443  0.2226294  0.0589751    0.00000       Uiso       1.00
      H211          H  0.5480791  0.2478011  0.0406327    0.00000       Uiso       1.00
      H212          H  0.5488445  0.2804696  0.0395780    0.00000       Uiso       1.00
      H213          H  0.5353353  0.3097572  0.1097938    0.00000       Uiso       1.00
      C592          C  0.5401207  0.2415168  0.0955029    0.00000       Uiso       1.00
      C593          C  0.5395977  0.2598668  0.1147898    0.00000       Uiso       1.00
      C594          C  0.5372079  0.2590334  0.1343283    0.00000       Uiso       1.00
      C595          C  0.5375604  0.2778237  0.1532345    0.00000       Uiso       1.00
      C596          C  0.5415841  0.2982491  0.1526817    0.00000       Uiso       1.00
      C597          C  0.5444478  0.2988198  0.1326644    0.00000       Uiso       1.00
      C598          C  0.5418863  0.2796577  0.1141760    0.00000       Uiso       1.00
       O16          O  0.5384936  0.2210775  0.0931936    0.00000       Uiso       1.00
      H214          H  0.5349792  0.2436957  0.1348978    0.00000       Uiso       1.00
      H215          H  0.5348321  0.2761043  0.1681036    0.00000       Uiso       1.00
      H216          H  0.5499761  0.3144658  0.1309846    0.00000       Uiso       1.00
      C599          C  0.5401778  0.3756528  0.0770163    0.00000       Uiso       1.00
      C600          C  0.5396754  0.3563725  0.0765963    0.00000       Uiso       1.00
      C601          C  0.5373330  0.3368439  0.0585953    0.00000       Uiso       1.00
      C602          C  0.5377003  0.3179455  0.0581262    0.00000       Uiso       1.00
      C603          C  0.5416872  0.3184929  0.0751028    0.00000       Uiso       1.00
      C604          C  0.5445066  0.3385020  0.0928439    0.00000       Uiso       1.00
      C605          C  0.5419340  0.3569811  0.0947266    0.00000       Uiso       1.00
       O17          O  0.5385573  0.3779627  0.0605104    0.00000       Uiso       1.00
      H217          H  0.5351199  0.3362729  0.0449055    0.00000       Uiso       1.00
      H218          H  0.5350050  0.3030848  0.0442488    0.00000       Uiso       1.00
      H219          H  0.5500190  0.3401925  0.1046591    0.00000       Uiso       1.00
      C606          C  0.5401177  0.3940944  0.2296234    0.00000       Uiso       1.00
      C607          C  0.5396007  0.3945051  0.2112696    0.00000       Uiso       1.00
      C608          C  0.5372645  0.4125089  0.2120850    0.00000       Uiso       1.00
      C609          C  0.5376348  0.4129827  0.1932896    0.00000       Uiso       1.00
      C610          C  0.5416104  0.3960002  0.1728732    0.00000       Uiso       1.00
      C611          C  0.5444142  0.3782486  0.1723232    0.00000       Uiso       1.00
      C612          C  0.5418469  0.3763692  0.1914928    0.00000       Uiso       1.00
       O18          O  0.5385213  0.4106138  0.2500505    0.00000       Uiso       1.00
      H220          H  0.5350600  0.4262001  0.2274181    0.00000       Uiso       1.00
      H221          H  0.5349537  0.4268695  0.1950032    0.00000       Uiso       1.00
      H222          H  0.5499156  0.3664254  0.1566853    0.00000       Uiso       1.00
        B7          B  0.5406005  0.4013257  0.2619315    0.00000       Uiso       1.00
        B8          B  0.5406170  0.4012061  0.0698082    0.00000       Uiso       1.00
        B9          B  0.5405971  0.2092081  0.0699397    0.00000       Uiso       1.00
      C613          C  0.2287400  0.3949146  0.5429363    0.00000       Uiso       1.00
      C614          C  0.2098712  0.3959057  0.5440650    0.00000       Uiso       1.00
      C615          C  0.2092713  0.4154775  0.5462587    0.00000       Uiso       1.00
      C616          C  0.1906225  0.4158689  0.5462489    0.00000       Uiso       1.00
      C617          C  0.1725848  0.3963752  0.5427945    0.00000       Uiso       1.00
      C618          C  0.1736821  0.3767601  0.5402836    0.00000       Uiso       1.00
      C619          C  0.1913129  0.3764600  0.5424433    0.00000       Uiso       1.00
       O19          O  0.2485256  0.4121677  0.5434095    0.00000       Uiso       1.00
      H223          H  0.2233552  0.4305042  0.5480025    0.00000       Uiso       1.00
      H224          H  0.1907029  0.4315413  0.5487296    0.00000       Uiso       1.00
      H225          H  0.1614230  0.3613304  0.5352242    0.00000       Uiso       1.00
      C620          C  0.0943467  0.2424233  0.5429944    0.00000       Uiso       1.00
      C621          C  0.1130730  0.2612978  0.5441363    0.00000       Uiso       1.00
      C622          C  0.1310580  0.2618982  0.5463193    0.00000       Uiso       1.00
      C623          C  0.1501087  0.2805468  0.5463030    0.00000       Uiso       1.00
      C624          C  0.1521038  0.2985820  0.5428474    0.00000       Uiso       1.00
      C625          C  0.1338892  0.2974862  0.5403581    0.00000       Uiso       1.00
      C626          C  0.1137985  0.2798570  0.5425267    0.00000       Uiso       1.00
       O20          O  0.0913568  0.2226293  0.5434378    0.00000       Uiso       1.00
      H226          H  0.1302689  0.2478128  0.5480487    0.00000       Uiso       1.00
      H227          H  0.1632246  0.2804628  0.5487731    0.00000       Uiso       1.00
      H228          H  0.1357654  0.3097383  0.5353001    0.00000       Uiso       1.00
      C627          C  0.0762251  0.3767879  0.5429738    0.00000       Uiso       1.00
      C628          C  0.0752270  0.3580709  0.5441327    0.00000       Uiso       1.00
      C629          C  0.0556491  0.3401031  0.5463463    0.00000       Uiso       1.00
      C630          C  0.0552492  0.3210585  0.5463575    0.00000       Uiso       1.00
      C631          C  0.0747415  0.3190578  0.5429052    0.00000       Uiso       1.00
      C632          C  0.0943618  0.3372569  0.5403863    0.00000       Uiso       1.00
      C633          C  0.0946704  0.3573397  0.5425175    0.00000       Uiso       1.00
       O21          O  0.0589708  0.3797871  0.5434429    0.00000       Uiso       1.00
      H229          H  0.0406285  0.3409079  0.5480779    0.00000       Uiso       1.00
      H230          H  0.0395741  0.3079504  0.5488436    0.00000       Uiso       1.00
      H231          H  0.1097904  0.3353697  0.5353346    0.00000       Uiso       1.00
      C634          C  0.0954989  0.3941040  0.5401194    0.00000       Uiso       1.00
      C635          C  0.1147859  0.3945180  0.5395966    0.00000       Uiso       1.00
      C636          C  0.1343245  0.4125002  0.5372068    0.00000       Uiso       1.00
      C637          C  0.1532309  0.4129688  0.5375594    0.00000       Uiso       1.00
      C638          C  0.1526782  0.3960144  0.5415832    0.00000       Uiso       1.00
      C639          C  0.1326609  0.3782901  0.5444469    0.00000       Uiso       1.00
      C640          C  0.1141723  0.3764021  0.5418853    0.00000       Uiso       1.00
       O22          O  0.0931894  0.4106068  0.5384922    0.00000       Uiso       1.00
      H232          H  0.1348938  0.4261786  0.5349780    0.00000       Uiso       1.00
      H233          H  0.1681000  0.4268290  0.5348311    0.00000       Uiso       1.00
      H234          H  0.1309812  0.3664927  0.5499754    0.00000       Uiso       1.00
      C641          C  0.0770133  0.2415397  0.5401778    0.00000       Uiso       1.00
      C642          C  0.0765932  0.2598975  0.5396752    0.00000       Uiso       1.00
      C643          C  0.0585920  0.2590825  0.5373327    0.00000       Uiso       1.00
      C644          C  0.0581227  0.2778789  0.5376998    0.00000       Uiso       1.00
      C645          C  0.0750993  0.2982950  0.5416867    0.00000       Uiso       1.00
      C646          C  0.0928407  0.2988466  0.5445062    0.00000       Uiso       1.00
      C647          C  0.0947235  0.2796777  0.5419337    0.00000       Uiso       1.00
       O23          O  0.0605074  0.2211033  0.5385572    0.00000       Uiso       1.00
      H235          H  0.0449022  0.2437506  0.5351195    0.00000       Uiso       1.00
      H236          H  0.0442452  0.2761668  0.5350043    0.00000       Uiso       1.00
      H237          H  0.1046558  0.3144836  0.5500184    0.00000       Uiso       1.00
      C648          C  0.2296209  0.3756453  0.5401177    0.00000       Uiso       1.00
      C649          C  0.2112671  0.3563638  0.5396006    0.00000       Uiso       1.00
      C650          C  0.2120827  0.3368394  0.5372646    0.00000       Uiso       1.00
      C651          C  0.1932872  0.3179405  0.5376350    0.00000       Uiso       1.00
      C652          C  0.1728706  0.3184819  0.5416104    0.00000       Uiso       1.00
      C653          C  0.1723205  0.3384872  0.5444140    0.00000       Uiso       1.00
      C654          C  0.1914901  0.3569688  0.5418466    0.00000       Uiso       1.00
       O24          O  0.2500483  0.3779568  0.5385213    0.00000       Uiso       1.00
      H238          H  0.2274159  0.3362770  0.5350603    0.00000       Uiso       1.00
      H239          H  0.1950010  0.3030863  0.5349540    0.00000       Uiso       1.00
      H240          H  0.1566824  0.3401737  0.5499152    0.00000       Uiso       1.00
       B10          B  0.2619292  0.4012050  0.5406005    0.00000       Uiso       1.00
       B11          B  0.0698054  0.2092177  0.5406172    0.00000       Uiso       1.00
       B12          B  0.0699353  0.4013257  0.5405956    0.00000       Uiso       1.00
       B13          B  0.0125382  0.8725473  0.5985903    0.00000       Uiso       1.00
       B14          B  0.0125386  0.7385815  0.5985910    0.00000       Uiso       1.00
       B15          B  0.0125383  0.8725474  0.7325567    0.00000       Uiso       1.00
      C655          C  0.0140278  0.8283436  0.6234907    0.00000       Uiso       1.00
      C656          C  0.0136419  0.8476554  0.6052149    0.00000       Uiso       1.00
      H241          H  0.0139550  0.8151947  0.5893435    0.00000       Uiso       1.00
       O25          O  0.0129807  0.8500326  0.5882559    0.00000       Uiso       1.00
      C657          C  0.0138740  0.8288913  0.6046646    0.00000       Uiso       1.00
      C658          C  0.0140279  0.8091748  0.6427945    0.00000       Uiso       1.00
      C659          C  0.0136422  0.7712014  0.6234828    0.00000       Uiso       1.00
      H242          H  0.0139551  0.7881037  0.6559436    0.00000       Uiso       1.00
       O26          O  0.0129811  0.7512043  0.6211057    0.00000       Uiso       1.00
      C660          C  0.0138742  0.7896472  0.6422469    0.00000       Uiso       1.00
      C661          C  0.0140278  0.8476473  0.6619633    0.00000       Uiso       1.00
      C662          C  0.0136419  0.8659230  0.6999367    0.00000       Uiso       1.00
      H243          H  0.0139548  0.8817945  0.6830343    0.00000       Uiso       1.00
       O27          O  0.0129808  0.8828819  0.7199339    0.00000       Uiso       1.00
      C663          C  0.0138739  0.8664735  0.6814910    0.00000       Uiso       1.00
      C664          C  0.0140279  0.8091748  0.6234908    0.00000       Uiso       1.00
      C665          C  0.0136421  0.7712014  0.6052153    0.00000       Uiso       1.00
       O28          O  0.0129811  0.7512043  0.5882564    0.00000       Uiso       1.00
      H244          H  0.0139551  0.7881036  0.5893436    0.00000       Uiso       1.00
      C666          C  0.0138741  0.7896471  0.6046647    0.00000       Uiso       1.00
      C667          C  0.0140278  0.8476473  0.6427944    0.00000       Uiso       1.00
      C668          C  0.0136418  0.8659230  0.6234824    0.00000       Uiso       1.00
      H245          H  0.0139548  0.8817945  0.6559432    0.00000       Uiso       1.00
       O29          O  0.0129806  0.8828818  0.6211051    0.00000       Uiso       1.00
      C669          C  0.0138739  0.8664734  0.6422465    0.00000       Uiso       1.00
      C670          C  0.0140278  0.8283436  0.6619633    0.00000       Uiso       1.00
      C671          C  0.0136419  0.8476554  0.6999367    0.00000       Uiso       1.00
      H246          H  0.0139551  0.8151947  0.6830346    0.00000       Uiso       1.00
       O30          O  0.0129808  0.8500326  0.7199340    0.00000       Uiso       1.00
      C672          C  0.0138740  0.8288913  0.6814911    0.00000       Uiso       1.00
      C673          C  0.0943758  0.3949188  0.2287455    0.00000       Uiso       1.00
      C674          C  0.1131070  0.3959100  0.2098768    0.00000       Uiso       1.00
      C675          C  0.1310849  0.4154819  0.2092770    0.00000       Uiso       1.00
      C676          C  0.1501350  0.4158735  0.1906284    0.00000       Uiso       1.00
      C677          C  0.1521333  0.3963799  0.1725909    0.00000       Uiso       1.00
      C678          C  0.1339318  0.3767647  0.1736881    0.00000       Uiso       1.00
      C679          C  0.1138414  0.3764644  0.1913187    0.00000       Uiso       1.00
       O31          O  0.0913700  0.4121717  0.2485310    0.00000       Uiso       1.00
      H247          H  0.1302839  0.4305086  0.2233609    0.00000       Uiso       1.00
      H248          H  0.1632461  0.4315459  0.1907089    0.00000       Uiso       1.00
      H249          H  0.1358208  0.3613350  0.1614291    0.00000       Uiso       1.00
      C680          C  0.0762199  0.2424279  0.0943530    0.00000       Uiso       1.00
      C681          C  0.0752262  0.2613024  0.1130792    0.00000       Uiso       1.00
      C682          C  0.0556587  0.2619027  0.1310640    0.00000       Uiso       1.00
      C683          C  0.0552728  0.2805512  0.1501146    0.00000       Uiso       1.00
      C684          C  0.0747685  0.2985864  0.1521098    0.00000       Uiso       1.00
      C685          C  0.0943765  0.2974908  0.1338954    0.00000       Uiso       1.00
      C686          C  0.0946695  0.2798617  0.1138048    0.00000       Uiso       1.00
       O32          O  0.0589725  0.2226339  0.0913631    0.00000       Uiso       1.00
      H250          H  0.0406330  0.2478171  0.1302748    0.00000       Uiso       1.00
      H251          H  0.0396029  0.2804670  0.1632303    0.00000       Uiso       1.00
      H252          H  0.1098104  0.3097430  0.1357716    0.00000       Uiso       1.00
      C687          C  0.2287265  0.3767934  0.0762322    0.00000       Uiso       1.00
      C688          C  0.2098487  0.3580763  0.0752339    0.00000       Uiso       1.00
      C689          C  0.2092452  0.3401086  0.0556562    0.00000       Uiso       1.00
      C690          C  0.1905892  0.3210638  0.0552563    0.00000       Uiso       1.00
      C691          C  0.1725487  0.3190630  0.0747484    0.00000       Uiso       1.00
      C692          C  0.1736463  0.3372620  0.0943685    0.00000       Uiso       1.00
      C693          C  0.1912893  0.3573449  0.0946771    0.00000       Uiso       1.00
       O33          O  0.2485108  0.3797927  0.0589780    0.00000       Uiso       1.00
      H253          H  0.2233389  0.3409135  0.0406357    0.00000       Uiso       1.00
      H254          H  0.1906703  0.3079559  0.0395813    0.00000       Uiso       1.00
      H255          H  0.1613823  0.3353748  0.1097969    0.00000       Uiso       1.00
      C694          C  0.2296232  0.3941094  0.0955058    0.00000       Uiso       1.00
      C695          C  0.2112729  0.3945233  0.1147926    0.00000       Uiso       1.00
      C696          C  0.2121063  0.4125053  0.1343311    0.00000       Uiso       1.00
      C697          C  0.1933159  0.4129738  0.1532373    0.00000       Uiso       1.00
      C698          C  0.1728904  0.3960193  0.1526845    0.00000       Uiso       1.00
      C699          C  0.1723198  0.3782951  0.1326673    0.00000       Uiso       1.00
      C700          C  0.1914819  0.3764072  0.1141789    0.00000       Uiso       1.00
       O34          O  0.2500626  0.4106123  0.0931964    0.00000       Uiso       1.00
      H256          H  0.2274441  0.4261838  0.1349005    0.00000       Uiso       1.00
      H257          H  0.1950352  0.4268339  0.1681063    0.00000       Uiso       1.00
      H258          H  0.1566736  0.3664976  0.1309876    0.00000       Uiso       1.00
      C701          C  0.0954864  0.2415445  0.0770198    0.00000       Uiso       1.00
      C702          C  0.1147668  0.2599024  0.0765998    0.00000       Uiso       1.00
      C703          C  0.1342956  0.2590876  0.0585988    0.00000       Uiso       1.00
      C704          C  0.1531941  0.2778841  0.0581296    0.00000       Uiso       1.00
      C705          C  0.1526466  0.2983001  0.0751061    0.00000       Uiso       1.00
      C706          C  0.1326373  0.2988515  0.0928472    0.00000       Uiso       1.00
      C707          C  0.1141582  0.2796825  0.0947299    0.00000       Uiso       1.00
       O35          O  0.0931765  0.2211082  0.0605140    0.00000       Uiso       1.00
      H259          H  0.1348666  0.2437558  0.0449091    0.00000       Uiso       1.00
      H260          H  0.1680549  0.2761722  0.0442523    0.00000       Uiso       1.00
      H261          H  0.1309468  0.3144884  0.1046623    0.00000       Uiso       1.00
      C708          C  0.0770443  0.3756493  0.2296263    0.00000       Uiso       1.00
      C709          C  0.0766337  0.3563679  0.2112726    0.00000       Uiso       1.00
      C710          C  0.0586298  0.3368435  0.2120881    0.00000       Uiso       1.00
      C711          C  0.0581559  0.3179446  0.1932928    0.00000       Uiso       1.00
      C712          C  0.0751386  0.3184862  0.1728764    0.00000       Uiso       1.00
      C713          C  0.0928903  0.3384916  0.1723263    0.00000       Uiso       1.00
      C714          C  0.0947697  0.3569731  0.1914958    0.00000       Uiso       1.00
       O36          O  0.0605247  0.3779607  0.2500535    0.00000       Uiso       1.00
      H262          H  0.0449385  0.3362809  0.2274213    0.00000       Uiso       1.00
      H263          H  0.0442691  0.3030904  0.1950065    0.00000       Uiso       1.00
      H264          H  0.1047137  0.3401782  0.1566883    0.00000       Uiso       1.00
       B16          B  0.0698129  0.4012089  0.2619344    0.00000       Uiso       1.00
       B17          B  0.0699330  0.2092224  0.0698119    0.00000       Uiso       1.00
       B18          B  0.2619321  0.4013313  0.0699425    0.00000       Uiso       1.00
       B19          B  0.7325545  0.8725456  0.0125377    0.00000       Uiso       1.00
       B20          B  0.5985879  0.7385792  0.0125377    0.00000       Uiso       1.00
       B21          B  0.5985875  0.8725449  0.0125370    0.00000       Uiso       1.00
      C715          C  0.6619608  0.8283415  0.0140270    0.00000       Uiso       1.00
      C716          C  0.6999344  0.8476535  0.0136412    0.00000       Uiso       1.00
      H265          H  0.6830322  0.8151928  0.0139543    0.00000       Uiso       1.00
       O37          O  0.7199318  0.8500308  0.0129802    0.00000       Uiso       1.00
      C717          C  0.6814886  0.8288894  0.0138733    0.00000       Uiso       1.00
      C718          C  0.6234879  0.8091725  0.0140269    0.00000       Uiso       1.00
      C719          C  0.6052123  0.7711991  0.0136411    0.00000       Uiso       1.00
      H266          H  0.5893406  0.7881012  0.0139540    0.00000       Uiso       1.00
       O38          O  0.5882533  0.7512018  0.0129801    0.00000       Uiso       1.00
      C720          C  0.6046617  0.7896447  0.0138731    0.00000       Uiso       1.00
      C721          C  0.6427917  0.8476451  0.0140268    0.00000       Uiso       1.00
      C722          C  0.6234797  0.8659207  0.0136408    0.00000       Uiso       1.00
      H267          H  0.6559406  0.8817923  0.0139539    0.00000       Uiso       1.00
       O39          O  0.6211023  0.8828796  0.0129796    0.00000       Uiso       1.00
      C723          C  0.6422439  0.8664712  0.0138729    0.00000       Uiso       1.00
      C724          C  0.6427919  0.8091726  0.0140270    0.00000       Uiso       1.00
      C725          C  0.6234800  0.7711992  0.0136412    0.00000       Uiso       1.00
       O40          O  0.6211028  0.7512020  0.0129802    0.00000       Uiso       1.00
      H268          H  0.6559409  0.7881016  0.0139543    0.00000       Uiso       1.00
      C726          C  0.6422442  0.7896449  0.0138733    0.00000       Uiso       1.00
      C727          C  0.6619607  0.8476452  0.0140269    0.00000       Uiso       1.00
      C728          C  0.6999343  0.8659211  0.0136411    0.00000       Uiso       1.00
      H269          H  0.6830319  0.8817925  0.0139540    0.00000       Uiso       1.00
       O41          O  0.7199317  0.8828800  0.0129801    0.00000       Uiso       1.00
      C729          C  0.6814885  0.8664714  0.0138731    0.00000       Uiso       1.00
      C730          C  0.6234879  0.8283414  0.0140268    0.00000       Uiso       1.00
      C731          C  0.6052120  0.8476530  0.0136408    0.00000       Uiso       1.00
      H270          H  0.5893404  0.8151923  0.0139539    0.00000       Uiso       1.00
       O42          O  0.5882529  0.8500302  0.0129796    0.00000       Uiso       1.00
      C732          C  0.6046616  0.8288890  0.0138729    0.00000       Uiso       1.00
      C733          C  0.2287376  0.9281955  0.0943708    0.00000       Uiso       1.00
      C734          C  0.2098688  0.9270666  0.1131018    0.00000       Uiso       1.00
      C735          C  0.2092690  0.9248728  0.1310797    0.00000       Uiso       1.00
      C736          C  0.1906203  0.9248826  0.1501296    0.00000       Uiso       1.00
      C737          C  0.1725825  0.9283367  0.1521278    0.00000       Uiso       1.00
      C738          C  0.1736797  0.9308478  0.1339263    0.00000       Uiso       1.00
      C739          C  0.1913105  0.9286883  0.1138361    0.00000       Uiso       1.00
       O43          O  0.2485233  0.9277225  0.0913652    0.00000       Uiso       1.00
      H271          H  0.2233531  0.9231291  0.1302788    0.00000       Uiso       1.00
      H272          H  0.1907008  0.9224017  0.1632407    0.00000       Uiso       1.00
      H273          H  0.1614205  0.9359071  0.1358151    0.00000       Uiso       1.00
      C740          C  0.0943437  0.9281368  0.0762140    0.00000       Uiso       1.00
      C741          C  0.1130701  0.9269950  0.0752204    0.00000       Uiso       1.00
      C742          C  0.1310551  0.9248122  0.0556531    0.00000       Uiso       1.00
      C743          C  0.1501059  0.9248286  0.0552673    0.00000       Uiso       1.00
      C744          C  0.1521011  0.9282842  0.0747630    0.00000       Uiso       1.00
      C745          C  0.1338865  0.9307733  0.0943708    0.00000       Uiso       1.00
      C746          C  0.1137957  0.9286045  0.0946636    0.00000       Uiso       1.00
       O44          O  0.0913538  0.9276935  0.0589665    0.00000       Uiso       1.00
      H274          H  0.1302659  0.9230829  0.0406274    0.00000       Uiso       1.00
      H275          H  0.1632217  0.9223587  0.0395976    0.00000       Uiso       1.00
      H276          H  0.1357627  0.9358312  0.1098047    0.00000       Uiso       1.00
      C747          C  0.0762228  0.9281568  0.2287201    0.00000       Uiso       1.00
      C748          C  0.0752246  0.9269979  0.2098423    0.00000       Uiso       1.00
      C749          C  0.0556467  0.9247842  0.2092387    0.00000       Uiso       1.00
      C750          C  0.0552467  0.9247730  0.1905827    0.00000       Uiso       1.00
      C751          C  0.0747390  0.9282256  0.1725424    0.00000       Uiso       1.00
      C752          C  0.0943593  0.9307446  0.1736401    0.00000       Uiso       1.00
      C753          C  0.0946679  0.9286132  0.1912831    0.00000       Uiso       1.00
       O45          O  0.0589685  0.9276874  0.2485042    0.00000       Uiso       1.00
      H277          H  0.0406261  0.9230524  0.2233323    0.00000       Uiso       1.00
      H278          H  0.0395716  0.9222870  0.1906637    0.00000       Uiso       1.00
      H279          H  0.1097879  0.9357963  0.1613762    0.00000       Uiso       1.00
      C754          C  0.0954966  0.9310112  0.2296169    0.00000       Uiso       1.00
      C755          C  0.1147837  0.9315342  0.2112668    0.00000       Uiso       1.00
      C756          C  0.1343223  0.9339241  0.2121003    0.00000       Uiso       1.00
      C757          C  0.1532287  0.9335716  0.1933101    0.00000       Uiso       1.00
      C758          C  0.1526759  0.9295478  0.1728846    0.00000       Uiso       1.00
      C759          C  0.1326586  0.9266841  0.1723139    0.00000       Uiso       1.00
      C760          C  0.1141699  0.9292455  0.1914759    0.00000       Uiso       1.00
       O46          O  0.0931872  0.9326383  0.2500562    0.00000       Uiso       1.00
      H280          H  0.1348917  0.9361528  0.2274381    0.00000       Uiso       1.00
      H281          H  0.1680979  0.9363000  0.1950295    0.00000       Uiso       1.00
      H282          H  0.1309788  0.9211557  0.1566678    0.00000       Uiso       1.00
      C761          C  0.0770103  0.9309534  0.0954803    0.00000       Uiso       1.00
      C762          C  0.0765904  0.9314559  0.1147606    0.00000       Uiso       1.00
      C763          C  0.0585891  0.9337982  0.1342892    0.00000       Uiso       1.00
      C764          C  0.0581200  0.9334310  0.1531877    0.00000       Uiso       1.00
      C765          C  0.0750967  0.9294442  0.1526404    0.00000       Uiso       1.00
      C766          C  0.0928380  0.9266248  0.1326313    0.00000       Uiso       1.00
      C767          C  0.0947207  0.9291974  0.1141522    0.00000       Uiso       1.00
       O47          O  0.0605044  0.9325738  0.0931702    0.00000       Uiso       1.00
      H283          H  0.0448993  0.9360112  0.1348601    0.00000       Uiso       1.00
      H284          H  0.0442425  0.9361262  0.1680483    0.00000       Uiso       1.00
      H285          H  0.1046532  0.9211126  0.1309409    0.00000       Uiso       1.00
      C768          C  0.2296184  0.9310142  0.0770393    0.00000       Uiso       1.00
      C769          C  0.2112645  0.9315312  0.0766286    0.00000       Uiso       1.00
      C770          C  0.2120800  0.9338673  0.0586247    0.00000       Uiso       1.00
      C771          C  0.1932845  0.9334968  0.0581507    0.00000       Uiso       1.00
      C772          C  0.1728679  0.9295213  0.0751332    0.00000       Uiso       1.00
      C773          C  0.1723179  0.9267175  0.0928849    0.00000       Uiso       1.00
      C774          C  0.1914876  0.9292850  0.0947644    0.00000       Uiso       1.00
       O48          O  0.2500458  0.9326108  0.0605199    0.00000       Uiso       1.00
      H286          H  0.2274133  0.9360718  0.0449335    0.00000       Uiso       1.00
      H287          H  0.1949982  0.9361779  0.0442639    0.00000       Uiso       1.00
      H288          H  0.1566798  0.9212162  0.1047082    0.00000       Uiso       1.00
       B22          B  0.2619268  0.9305316  0.0698081    0.00000       Uiso       1.00
       B23          B  0.0698023  0.9305140  0.0699268    0.00000       Uiso       1.00
       B24          B  0.0699331  0.9305347  0.2619256    0.00000       Uiso       1.00
