data_92
_audit_creation_date              0000-00-00
_audit_creation_method            'LanYouShi'
_symmetry_space_group_name_H-M    'P1'
_cell_length_a                    74.4260025
_cell_length_b                    74.4259033
_cell_length_c                    74.4260025
_cell_angle_alpha                 119.9990997
_cell_angle_beta                  119.9990997
_cell_angle_gamma                 60.0000000
loop_
_atom_site_label
_atom_site_type_symbol
_atom_site_fract_x
_atom_site_fract_y
_atom_site_fract_z
_atom_site_U_iso_or_equiv
_atom_site_adp_type
_atom_site_occupancy
        C1          C  0.4610900  0.7135068  0.5872995    0.00000       Uiso       1.00
        C2          C  0.4627067  0.7020797  0.5662070    0.00000       Uiso       1.00
        C3          C  0.4662394  0.6791669  0.5565183    0.00000       Uiso       1.00
        C4          C  0.4627062  0.7020792  0.5985810    0.00000       Uiso       1.00
        C5          C  0.4660977  0.6792404  0.5889155    0.00000       Uiso       1.00
        C6          C  0.4680649  0.6671847  0.5676807    0.00000       Uiso       1.00
        C7          C  0.4127057  0.4127064  0.2864994    0.00000       Uiso       1.00
        C8          C  0.4014238  0.4337991  0.2979266    0.00000       Uiso       1.00
        C9          C  0.4110887  0.4435807  0.3207651    0.00000       Uiso       1.00
       C10          C  0.4337983  0.4014245  0.2979266    0.00000       Uiso       1.00
       C11          C  0.4434866  0.4111157  0.3208393    0.00000       Uiso       1.00
       C12          C  0.4323227  0.4324343  0.3328201    0.00000       Uiso       1.00
       C13          C  0.4127024  0.4127031  0.5389117    0.00000       Uiso       1.00
       C14          C  0.4337952  0.4014214  0.5372955    0.00000       Uiso       1.00
       C15          C  0.4435761  0.4110854  0.5339012    0.00000       Uiso       1.00
       C16          C  0.4014207  0.4337959  0.5372955    0.00000       Uiso       1.00
       C17          C  0.4111104  0.4434832  0.5337591    0.00000       Uiso       1.00
       C18          C  0.4324290  0.4323185  0.5319309    0.00000       Uiso       1.00
       C19          C  0.7135056  0.4610909  0.5872995    0.00000       Uiso       1.00
       C20          C  0.7020780  0.4627070  0.5985810    0.00000       Uiso       1.00
       C21          C  0.6791654  0.4662395  0.5888896    0.00000       Uiso       1.00
       C22          C  0.7020785  0.4627075  0.5662069    0.00000       Uiso       1.00
       C23          C  0.6792398  0.4660982  0.5564249    0.00000       Uiso       1.00
       C24          C  0.6671841  0.4680647  0.5675707    0.00000       Uiso       1.00
       C25          C  0.4999989  0.5000012  0.4999998    0.00000       Uiso       1.00
        F1          F  0.4609598  0.7139382  0.5538445    0.00000       Uiso       1.00
        F2          F  0.7139361  0.4609597  0.6210547    0.00000       Uiso       1.00
        F3          F  0.3789499  0.4461619  0.2860684    0.00000       Uiso       1.00
        F4          F  0.4461578  0.3789473  0.5390424    0.00000       Uiso       1.00
        F5          F  0.4609589  0.7139373  0.6210548    0.00000       Uiso       1.00
        F6          F  0.4461611  0.3789506  0.2860684    0.00000       Uiso       1.00
        F7          F  0.3789467  0.4461586  0.5390424    0.00000       Uiso       1.00
        F8          F  0.7139370  0.4609606  0.5538445    0.00000       Uiso       1.00
        F9          F  0.4685850  0.6676100  0.5343046    0.00000       Uiso       1.00
       F10          F  0.4671873  0.6680465  0.6015276    0.00000       Uiso       1.00
       F11          F  0.6680467  0.4671886  0.5337090    0.00000       Uiso       1.00
       F12          F  0.6676078  0.4685877  0.6018932    0.00000       Uiso       1.00
       F13          F  0.3984751  0.4662965  0.3319584    0.00000       Uiso       1.00
       F14          F  0.4656999  0.3981109  0.3323945    0.00000       Uiso       1.00
       F15          F  0.3981008  0.4656950  0.5314090    0.00000       Uiso       1.00
       F16          F  0.4662904  0.3984715  0.5328059    0.00000       Uiso       1.00
       C26          C  0.4721021  0.6424384  0.5574427    0.00000       Uiso       1.00
       C27          C  0.4637179  0.6321868  0.5343875    0.00000       Uiso       1.00
       C28          C  0.4675732  0.6091884  0.5248492    0.00000       Uiso       1.00
       C29          C  0.4844449  0.6287661  0.5706705    0.00000       Uiso       1.00
       C30          C  0.4882364  0.6058004  0.5613539    0.00000       Uiso       1.00
       C31          C  0.4798211  0.5959489  0.5383677    0.00000       Uiso       1.00
        H1          H  0.4915010  0.6358764  0.5882845    0.00000       Uiso       1.00
        H2          H  0.4538969  0.6421244  0.5237794    0.00000       Uiso       1.00
       C32          C  0.4425580  0.4429054  0.3575648    0.00000       Uiso       1.00
       C33          C  0.4293293  0.4574547  0.3712368    0.00000       Uiso       1.00
       C34          C  0.4386445  0.4673131  0.3942017    0.00000       Uiso       1.00
       C35          C  0.4656115  0.4384959  0.3678155    0.00000       Uiso       1.00
       C36          C  0.4751473  0.4481016  0.3908122    0.00000       Uiso       1.00
       C37          C  0.4616296  0.4626025  0.4040518    0.00000       Uiso       1.00
        H3          H  0.4762234  0.4277800  0.3578820    0.00000       Uiso       1.00
        H4          H  0.4117147  0.4608955  0.3641261    0.00000       Uiso       1.00
       C38          C  0.4429007  0.4425524  0.5278902    0.00000       Uiso       1.00
       C39          C  0.4574586  0.4293214  0.5155469    0.00000       Uiso       1.00
       C40          C  0.4673192  0.4386370  0.5117552    0.00000       Uiso       1.00
       C41          C  0.4384833  0.4656068  0.5362749    0.00000       Uiso       1.00
       C42          C  0.4480884  0.4751426  0.5324189    0.00000       Uiso       1.00
       C43          C  0.4625990  0.4616257  0.5201718    0.00000       Uiso       1.00
        H5          H  0.4277622  0.4762193  0.5460975    0.00000       Uiso       1.00
        H6          H  0.4609020  0.4117044  0.5084916    0.00000       Uiso       1.00
       C44          C  0.6424382  0.4721020  0.5570996    0.00000       Uiso       1.00
       C45          C  0.6321871  0.4637105  0.5615115    0.00000       Uiso       1.00
       C46          C  0.6091888  0.4675677  0.5519086    0.00000       Uiso       1.00
       C47          C  0.6287659  0.4844515  0.5425491    0.00000       Uiso       1.00
       C48          C  0.6058005  0.4882424  0.5326910    0.00000       Uiso       1.00
       C49          C  0.5959494  0.4798222  0.5374053    0.00000       Uiso       1.00
        H7          H  0.6358774  0.4915115  0.5391068    0.00000       Uiso       1.00
        H8          H  0.6421282  0.4538814  0.5722282    0.00000       Uiso       1.00
       C50          C  0.5991079  0.4594219  0.5565860    0.00000       Uiso       1.00
       C51          C  0.5762446  0.4635664  0.5472358    0.00000       Uiso       1.00
       C52          C  0.4980519  0.4434291  0.4008920    0.00000       Uiso       1.00
       C53          C  0.5074201  0.4527815  0.4237541    0.00000       Uiso       1.00
       F17          F  0.5317888  0.4471208  0.4337039    0.00000       Uiso       1.00
       F18          F  0.5128133  0.4282230  0.3873961    0.00000       Uiso       1.00
       F19          F  0.6126085  0.4463722  0.5717936    0.00000       Uiso       1.00
       F20          F  0.5662892  0.4548147  0.5528975    0.00000       Uiso       1.00
       C54          C  0.4838083  0.5727915  0.5288756    0.00000       Uiso       1.00
       C55          C  0.4757792  0.5628529  0.5058714    0.00000       Uiso       1.00
       C56          C  0.4803338  0.5397479  0.4964777    0.00000       Uiso       1.00
       C57          C  0.4961136  0.5595715  0.5423855    0.00000       Uiso       1.00
       C58          C  0.5002986  0.5365730  0.5328432    0.00000       Uiso       1.00
       C59          C  0.4925064  0.5260054  0.5097122    0.00000       Uiso       1.00
        H9          H  0.4565403  0.5066782  0.4733899    0.00000       Uiso       1.00
       H10          H  0.4712763  0.5212442  0.5251878    0.00000       Uiso       1.00
       C60          C  0.4711220  0.4722806  0.4272080    0.00000       Uiso       1.00
       C61          C  0.4576120  0.4866985  0.4404294    0.00000       Uiso       1.00
       C62          C  0.4671541  0.4959711  0.4634285    0.00000       Uiso       1.00
       C63          C  0.4941269  0.4672530  0.4371462    0.00000       Uiso       1.00
       C64          C  0.5035204  0.4764087  0.4602517    0.00000       Uiso       1.00
       C65          C  0.4902857  0.4912037  0.4739954    0.00000       Uiso       1.00
       H11          H  0.4748052  0.5326669  0.4787571    0.00000       Uiso       1.00
       H12          H  0.5266151  0.5101492  0.4933036    0.00000       Uiso       1.00
       C66          C  0.4722756  0.4711215  0.5161885    0.00000       Uiso       1.00
       C67          C  0.4867031  0.4576111  0.5038851    0.00000       Uiso       1.00
       C68          C  0.4959744  0.4671555  0.4997016    0.00000       Uiso       1.00
       C69          C  0.4672370  0.4941280  0.5242184    0.00000       Uiso       1.00
       C70          C  0.4763915  0.5035233  0.5196624    0.00000       Uiso       1.00
       C71          C  0.4911985  0.4902883  0.5074915    0.00000       Uiso       1.00
       H13          H  0.5326612  0.4747975  0.5287052    0.00000       Uiso       1.00
       H14          H  0.5101591  0.5266128  0.5434576    0.00000       Uiso       1.00
       C72          C  0.5727922  0.4838095  0.5277272    0.00000       Uiso       1.00
       C73          C  0.5628526  0.4757762  0.5327604    0.00000       Uiso       1.00
       C74          C  0.5397456  0.4803333  0.5236038    0.00000       Uiso       1.00
       C75          C  0.5595723  0.4961161  0.5133025    0.00000       Uiso       1.00
       C76          C  0.5365731  0.5002991  0.5040278    0.00000       Uiso       1.00
       C77          C  0.5260040  0.4925085  0.5088004    0.00000       Uiso       1.00
       H15          H  0.5066970  0.4565440  0.4898490    0.00000       Uiso       1.00
       H16          H  0.5212420  0.4713049  0.4673324    0.00000       Uiso       1.00
       C78          C  0.4527556  0.5074207  0.5364221    0.00000       Uiso       1.00
       C79          C  0.4434051  0.4980499  0.5405636    0.00000       Uiso       1.00
       C80          C  0.4913489  0.4347130  0.4956585    0.00000       Uiso       1.00
       C81          C  0.4817607  0.4253542  0.4995170    0.00000       Uiso       1.00
       C82          C  0.4635757  0.5762441  0.4925771    0.00000       Uiso       1.00
       C83          C  0.4594328  0.5991076  0.5019444    0.00000       Uiso       1.00
       C84          C  0.5043383  0.5695981  0.5652844    0.00000       Uiso       1.00
       C85          C  0.5004745  0.5924063  0.5746408    0.00000       Uiso       1.00
       C86          C  0.5695995  0.5043438  0.5086589    0.00000       Uiso       1.00
       C87          C  0.5924060  0.5004832  0.5182506    0.00000       Uiso       1.00
       C88          C  0.4347138  0.4913368  0.4304036    0.00000       Uiso       1.00
       C89          C  0.4253581  0.4817481  0.4075967    0.00000       Uiso       1.00
       F21          F  0.4870599  0.4010209  0.4903515    0.00000       Uiso       1.00
       F22          F  0.5064429  0.4199663  0.4824861    0.00000       Uiso       1.00
       F23          F  0.4470840  0.5317904  0.5451686    0.00000       Uiso       1.00
       F24          F  0.4281884  0.5128093  0.5536034    0.00000       Uiso       1.00
       F25          F  0.5175109  0.5560817  0.5800343    0.00000       Uiso       1.00
       F26          F  0.5096335  0.6022822  0.5989735    0.00000       Uiso       1.00
       F27          F  0.4548292  0.5662929  0.4682076    0.00000       Uiso       1.00
       F28          F  0.4463934  0.6126098  0.4871900    0.00000       Uiso       1.00
       F29          F  0.4010260  0.4870383  0.3977270    0.00000       Uiso       1.00
       F30          F  0.4199676  0.5064210  0.4439245    0.00000       Uiso       1.00
       F31          F  0.6022781  0.5096481  0.5129545    0.00000       Uiso       1.00
       F32          F  0.5560803  0.5175142  0.4935630    0.00000       Uiso       1.00
       C90          C  0.8838344  0.7135069  0.5872995    0.00000       Uiso       1.00
       C91          C  0.9049270  0.7020792  0.5985810    0.00000       Uiso       1.00
       C92          C  0.9146160  0.6791665  0.5888897    0.00000       Uiso       1.00
       C93          C  0.8725531  0.7020797  0.5662069    0.00000       Uiso       1.00
       C94          C  0.8822188  0.6792409  0.5564253    0.00000       Uiso       1.00
       C95          C  0.9034538  0.6671848  0.5675710    0.00000       Uiso       1.00
       C96          C  0.1846399  0.4127030  0.5389117    0.00000       Uiso       1.00
       C97          C  0.1732125  0.4337959  0.5372955    0.00000       Uiso       1.00
       C98          C  0.1503737  0.4435779  0.5339038    0.00000       Uiso       1.00
       C99          C  0.1732125  0.4014213  0.5372955    0.00000       Uiso       1.00
      C100          C  0.1502996  0.4111129  0.5337627    0.00000       Uiso       1.00
      C101          C  0.1383186  0.4324316  0.5319365    0.00000       Uiso       1.00
      C102          C  0.9322270  0.4127066  0.2864997    0.00000       Uiso       1.00
      C103          C  0.9338431  0.4014247  0.2979269    0.00000       Uiso       1.00
      C104          C  0.9372371  0.4110884  0.3207658    0.00000       Uiso       1.00
      C105          C  0.9338431  0.4337992  0.2979269    0.00000       Uiso       1.00
      C106          C  0.9373792  0.4434862  0.3208399    0.00000       Uiso       1.00
      C107          C  0.9392072  0.4323213  0.3328218    0.00000       Uiso       1.00
      C108          C  0.8838345  0.4610909  0.5872994    0.00000       Uiso       1.00
      C109          C  0.8725531  0.4627075  0.5662069    0.00000       Uiso       1.00
      C110          C  0.8822448  0.4662400  0.5565181    0.00000       Uiso       1.00
      C111          C  0.9049271  0.4627071  0.5985810    0.00000       Uiso       1.00
      C112          C  0.9147095  0.4660978  0.5889151    0.00000       Uiso       1.00
      C113          C  0.9035638  0.4680647  0.5676805    0.00000       Uiso       1.00
      C114          C  0.9711365  0.5000013  0.5000026    0.00000       Uiso       1.00
       F33          F  0.9172894  0.7139374  0.6210547    0.00000       Uiso       1.00
       F34          F  0.8500792  0.4609606  0.5538445    0.00000       Uiso       1.00
       F35          F  0.1850708  0.4461585  0.5390424    0.00000       Uiso       1.00
       F36          F  0.9320963  0.3789508  0.2860687    0.00000       Uiso       1.00
       F37          F  0.8500791  0.7139383  0.5538445    0.00000       Uiso       1.00
       F38          F  0.1850709  0.3789473  0.5390424    0.00000       Uiso       1.00
       F39          F  0.9320963  0.4461621  0.2860687    0.00000       Uiso       1.00
       F40          F  0.9172895  0.4609597  0.6210547    0.00000       Uiso       1.00
       F41          F  0.9368299  0.6676091  0.6018917    0.00000       Uiso       1.00
       F42          F  0.8696069  0.6680474  0.5337092    0.00000       Uiso       1.00
       F43          F  0.9374254  0.4671877  0.6015278    0.00000       Uiso       1.00
       F44          F  0.8692412  0.4685887  0.5343057    0.00000       Uiso       1.00
       F45          F  0.1391804  0.4662938  0.5328128    0.00000       Uiso       1.00
       F46          F  0.1387442  0.3981083  0.5314161    0.00000       Uiso       1.00
       F47          F  0.9397292  0.4656978  0.3323919    0.00000       Uiso       1.00
       F48          F  0.9383323  0.3984743  0.3319613    0.00000       Uiso       1.00
      C115          C  0.9136921  0.6424384  0.5570999    0.00000       Uiso       1.00
      C116          C  0.9367476  0.6321865  0.5615191    0.00000       Uiso       1.00
      C117          C  0.9462861  0.6091880  0.5519142    0.00000       Uiso       1.00
      C118          C  0.9004642  0.6287664  0.5425431    0.00000       Uiso       1.00
      C119          C  0.9097812  0.6058009  0.5326856    0.00000       Uiso       1.00
      C120          C  0.9327676  0.5959489  0.5374046    0.00000       Uiso       1.00
       H17          H  0.8828500  0.6358772  0.5390958    0.00000       Uiso       1.00
       H18          H  0.9473556  0.6421238  0.5722434    0.00000       Uiso       1.00
      C121          C  0.1135737  0.4429032  0.5278988    0.00000       Uiso       1.00
      C122          C  0.0999017  0.4574529  0.5155477    0.00000       Uiso       1.00
      C123          C  0.0769364  0.4673116  0.5117567    0.00000       Uiso       1.00
      C124          C  0.1033227  0.4384937  0.5362921    0.00000       Uiso       1.00
      C125          C  0.0803258  0.4480997  0.5324373    0.00000       Uiso       1.00
      C126          C  0.0670861  0.4626009  0.5201811    0.00000       Uiso       1.00
       H19          H  0.1132562  0.4277775  0.5461213    0.00000       Uiso       1.00
       H20          H  0.1070125  0.4608936  0.5084845    0.00000       Uiso       1.00
      C127          C  0.9432477  0.4425548  0.3575677    0.00000       Uiso       1.00
      C128          C  0.9555910  0.4293234  0.3712375    0.00000       Uiso       1.00
      C129          C  0.9593824  0.4386387  0.3942051    0.00000       Uiso       1.00
      C130          C  0.9348626  0.4656092  0.3678199    0.00000       Uiso       1.00
      C131          C  0.9387185  0.4751446  0.3908165    0.00000       Uiso       1.00
      C132          C  0.9509655  0.4616274  0.4040569    0.00000       Uiso       1.00
       H21          H  0.9250401  0.4762219  0.3578890    0.00000       Uiso       1.00
       H22          H  0.9626464  0.4117064  0.3641192    0.00000       Uiso       1.00
      C133          C  0.9140351  0.4721020  0.5574430    0.00000       Uiso       1.00
      C134          C  0.9096234  0.4637109  0.5343888    0.00000       Uiso       1.00
      C135          C  0.9192266  0.4675682  0.5248507    0.00000       Uiso       1.00
      C136          C  0.9285857  0.4844511  0.5706703    0.00000       Uiso       1.00
      C137          C  0.9384441  0.4882420  0.5613539    0.00000       Uiso       1.00
      C138          C  0.9337301  0.4798223  0.5383688    0.00000       Uiso       1.00
       H23          H  0.9320278  0.4915109  0.5882838    0.00000       Uiso       1.00
       H24          H  0.8989068  0.4538821  0.5237844    0.00000       Uiso       1.00
      C139          C  0.9145495  0.4594227  0.5019468    0.00000       Uiso       1.00
      C140          C  0.9239000  0.4635672  0.4925784    0.00000       Uiso       1.00
      C141          C  0.0702456  0.4434273  0.5405896    0.00000       Uiso       1.00
      C142          C  0.0473833  0.4527800  0.5364484    0.00000       Uiso       1.00
       F49          F  0.0374333  0.4471194  0.5452068    0.00000       Uiso       1.00
       F50          F  0.0837416  0.4282208  0.5536403    0.00000       Uiso       1.00
       F51          F  0.8993419  0.4463734  0.4871906    0.00000       Uiso       1.00
       F52          F  0.9182385  0.4548159  0.4682100    0.00000       Uiso       1.00
      C143          C  0.9422599  0.5727916  0.5277265    0.00000       Uiso       1.00
      C144          C  0.9652643  0.5628526  0.5327627    0.00000       Uiso       1.00
      C145          C  0.9746584  0.5397476  0.5236060    0.00000       Uiso       1.00
      C146          C  0.9287500  0.5595720  0.5133023    0.00000       Uiso       1.00
      C147          C  0.9382927  0.5365734  0.5040312    0.00000       Uiso       1.00
      C148          C  0.9614238  0.5260055  0.5088019    0.00000       Uiso       1.00
       H25          H  0.9977469  0.5066781  0.4898308    0.00000       Uiso       1.00
       H26          H  0.9459486  0.5212451  0.4673358    0.00000       Uiso       1.00
      C149          C  0.0439297  0.4722794  0.5161958    0.00000       Uiso       1.00
      C150          C  0.0307083  0.4866977  0.5038827    0.00000       Uiso       1.00
      C151          C  0.0077089  0.4959706  0.4996986    0.00000       Uiso       1.00
      C152          C  0.0339912  0.4672519  0.5242350    0.00000       Uiso       1.00
      C153          C  0.0108854  0.4764079  0.5196789    0.00000       Uiso       1.00
      C154          C  0.9971411  0.4912033  0.5074958    0.00000       Uiso       1.00
       H27          H  0.9923791  0.5326662  0.5287165    0.00000       Uiso       1.00
       H28          H  0.9778323  0.5101485  0.5434623    0.00000       Uiso       1.00
      C155          C  0.9549485  0.4711227  0.4272121    0.00000       Uiso       1.00
      C156          C  0.9672520  0.4576121  0.4404324    0.00000       Uiso       1.00
      C157          C  0.9714352  0.4671561  0.4634312    0.00000       Uiso       1.00
      C158          C  0.9469183  0.4941292  0.4371501    0.00000       Uiso       1.00
      C159          C  0.9514741  0.5035242  0.4602557    0.00000       Uiso       1.00
      C160          C  0.9636452  0.4902888  0.4739982    0.00000       Uiso       1.00
       H29          H  0.9424311  0.4747983  0.4787566    0.00000       Uiso       1.00
       H30          H  0.9276782  0.5266136  0.4933174    0.00000       Uiso       1.00
      C161          C  0.9434083  0.4838095  0.5288768    0.00000       Uiso       1.00
      C162          C  0.9383755  0.4757766  0.5058711    0.00000       Uiso       1.00
      C163          C  0.9475323  0.4803337  0.4964779    0.00000       Uiso       1.00
      C164          C  0.9578331  0.4961157  0.5423878    0.00000       Uiso       1.00
      C165          C  0.9671079  0.5002987  0.5328463    0.00000       Uiso       1.00
      C166          C  0.9623357  0.4925085  0.5097144    0.00000       Uiso       1.00
       H31          H  0.9812878  0.4565443  0.4733946    0.00000       Uiso       1.00
       H32          H  0.0038046  0.4713042  0.5252161    0.00000       Uiso       1.00
      C167          C  0.9347147  0.5074223  0.4237581    0.00000       Uiso       1.00
      C168          C  0.9305735  0.4980519  0.4008956    0.00000       Uiso       1.00
      C169          C  0.9754787  0.4347140  0.4304067    0.00000       Uiso       1.00
      C170          C  0.9716205  0.4253555  0.4076016    0.00000       Uiso       1.00
      C171          C  0.9785587  0.5762434  0.5472442    0.00000       Uiso       1.00
      C172          C  0.9691912  0.5991068  0.5565974    0.00000       Uiso       1.00
      C173          C  0.9058509  0.5695989  0.5086551    0.00000       Uiso       1.00
      C174          C  0.8964943  0.5924071  0.5182430    0.00000       Uiso       1.00
      C175          C  0.9624764  0.5043430  0.5652859    0.00000       Uiso       1.00
      C176          C  0.9528846  0.5004825  0.5746403    0.00000       Uiso       1.00
      C177          C  0.0407344  0.4913360  0.4956485    0.00000       Uiso       1.00
      C178          C  0.0635414  0.4817469  0.4995106    0.00000       Uiso       1.00
       F53          F  0.9807863  0.4010222  0.3977330    0.00000       Uiso       1.00
       F54          F  0.9886513  0.4199669  0.4439262    0.00000       Uiso       1.00
       F55          F  0.9259679  0.5317920  0.4337096    0.00000       Uiso       1.00
       F56          F  0.9175338  0.5128117  0.3873990    0.00000       Uiso       1.00
       F57          F  0.8911009  0.5560830  0.4935617    0.00000       Uiso       1.00
       F58          F  0.8721613  0.6022834  0.5129457    0.00000       Uiso       1.00
       F59          F  0.0029290  0.5662918  0.5529156    0.00000       Uiso       1.00
       F60          F  0.9839455  0.6126087  0.5718143    0.00000       Uiso       1.00
       F61          F  0.0734115  0.4870372  0.4903384    0.00000       Uiso       1.00
       F62          F  0.0272134  0.5064206  0.4824659    0.00000       Uiso       1.00
       F63          F  0.9581803  0.5096470  0.5989729    0.00000       Uiso       1.00
       F64          F  0.9775723  0.5175131  0.5800326    0.00000       Uiso       1.00
      C179          C  0.8838283  0.7135004  0.0100382    0.00000       Uiso       1.00
      C180          C  0.8725467  0.7020730  0.0084219    0.00000       Uiso       1.00
      C181          C  0.8822381  0.6791602  0.0048893    0.00000       Uiso       1.00
      C182          C  0.9049211  0.7020730  0.0084219    0.00000       Uiso       1.00
      C183          C  0.9147030  0.6792341  0.0050305    0.00000       Uiso       1.00
      C184          C  0.9035572  0.6671781  0.0030638    0.00000       Uiso       1.00
      C185          C  0.9322161  0.4126952  0.0584260    0.00000       Uiso       1.00
      C186          C  0.9338322  0.4337879  0.0697076    0.00000       Uiso       1.00
      C187          C  0.9372240  0.4435701  0.0600425    0.00000       Uiso       1.00
      C188          C  0.9338327  0.4014138  0.0373335    0.00000       Uiso       1.00
      C189          C  0.9373656  0.4111055  0.0276451    0.00000       Uiso       1.00
      C190          C  0.9391916  0.4324240  0.0388087    0.00000       Uiso       1.00
      C191          C  0.1846322  0.4126954  0.0584259    0.00000       Uiso       1.00
      C192          C  0.1732050  0.4014140  0.0373334    0.00000       Uiso       1.00
      C193          C  0.1503660  0.4110781  0.0275527    0.00000       Uiso       1.00
      C194          C  0.1732046  0.4337881  0.0697074    0.00000       Uiso       1.00
      C195          C  0.1502915  0.4434755  0.0600179    0.00000       Uiso       1.00
      C196          C  0.1383097  0.4323111  0.0386997    0.00000       Uiso       1.00
      C197          C  0.8838322  0.4610886  0.7576261    0.00000       Uiso       1.00
      C198          C  0.9049248  0.4627047  0.7690533    0.00000       Uiso       1.00
      C199          C  0.9146135  0.4662367  0.7919658    0.00000       Uiso       1.00
      C200          C  0.8725504  0.4627047  0.7690533    0.00000       Uiso       1.00
      C201          C  0.8822160  0.4660950  0.7918918    0.00000       Uiso       1.00
      C202          C  0.9034508  0.4680615  0.8039472    0.00000       Uiso       1.00
      C203          C  0.9711273  0.4999948  0.9711311    0.00000       Uiso       1.00
       F65          F  0.8500726  0.7139314  0.0101689    0.00000       Uiso       1.00
       F66          F  0.9172876  0.4609579  0.7571951    0.00000       Uiso       1.00
       F67          F  0.9320849  0.4461503  0.0921813    0.00000       Uiso       1.00
       F68          F  0.1850636  0.3789401  0.0249709    0.00000       Uiso       1.00
       F69          F  0.9172838  0.7139314  0.0101689    0.00000       Uiso       1.00
       F70          F  0.9320858  0.3789399  0.0249710    0.00000       Uiso       1.00
       F71          F  0.1850627  0.4461505  0.0921812    0.00000       Uiso       1.00
       F72          F  0.8500765  0.4609579  0.7571951    0.00000       Uiso       1.00
       F73          F  0.8692360  0.6676030  0.0025441    0.00000       Uiso       1.00
       F74          F  0.9374194  0.6680404  0.0039409    0.00000       Uiso       1.00
       F75          F  0.8696030  0.4671850  0.8030851    0.00000       Uiso       1.00
       F76          F  0.9368261  0.4685850  0.8035230    0.00000       Uiso       1.00
       F77          F  0.9383149  0.4662857  0.0726558    0.00000       Uiso       1.00
       F78          F  0.9397125  0.3981011  0.0054319    0.00000       Uiso       1.00
       F79          F  0.1387391  0.4656871  0.0730274    0.00000       Uiso       1.00
       F80          F  0.1391707  0.3984645  0.0048387    0.00000       Uiso       1.00
      C204          C  0.9140288  0.6424324  0.9990267    0.00000       Uiso       1.00
      C205          C  0.9096091  0.6321797  0.0074111    0.00000       Uiso       1.00
      C206          C  0.9192141  0.6091812  0.0035560    0.00000       Uiso       1.00
      C207          C  0.9285861  0.6287604  0.9866838    0.00000       Uiso       1.00
      C208          C  0.9384437  0.6057947  0.9828926    0.00000       Uiso       1.00
      C209          C  0.9337245  0.5959427  0.9913080    0.00000       Uiso       1.00
       H33          H  0.9320335  0.6358712  0.9796277    0.00000       Uiso       1.00
       H34          H  0.8988845  0.6421170  0.0172322    0.00000       Uiso       1.00
      C210          C  0.9432296  0.4428957  0.0285732    0.00000       Uiso       1.00
      C211          C  0.9555807  0.4574450  0.0418015    0.00000       Uiso       1.00
      C212          C  0.9593719  0.4673038  0.0324861    0.00000       Uiso       1.00
      C213          C  0.9348364  0.4384866  0.0055198    0.00000       Uiso       1.00
      C214          C  0.9386919  0.4480934  0.9959837    0.00000       Uiso       1.00
      C215          C  0.9509476  0.4625936  0.0095011    0.00000       Uiso       1.00
       H35          H  0.9250077  0.4277714  0.9949082    0.00000       Uiso       1.00
       H36          H  0.9626436  0.4608854  0.0594159    0.00000       Uiso       1.00
      C216          C  0.1135636  0.4425450  0.0282282    0.00000       Uiso       1.00
      C217          C  0.0998938  0.4293140  0.0136707    0.00000       Uiso       1.00
      C218          C  0.0769260  0.4386297  0.0038102    0.00000       Uiso       1.00
      C219          C  0.1033112  0.4655994  0.0326453    0.00000       Uiso       1.00
      C220          C  0.0803144  0.4751353  0.0230404    0.00000       Uiso       1.00
      C221          C  0.0670740  0.4616185  0.0085302    0.00000       Uiso       1.00
       H37          H  0.1132421  0.4762118  0.0433662    0.00000       Uiso       1.00
       H38          H  0.1070122  0.4116969  0.0102273    0.00000       Uiso       1.00
      C222          C  0.9136881  0.4720984  0.8286929    0.00000       Uiso       1.00
      C223          C  0.9367424  0.4637067  0.8389438    0.00000       Uiso       1.00
      C224          C  0.9462804  0.4675636  0.8619420    0.00000       Uiso       1.00
      C225          C  0.9004604  0.4844474  0.8423651    0.00000       Uiso       1.00
      C226          C  0.9097767  0.4882379  0.8653304    0.00000       Uiso       1.00
      C227          C  0.9327620  0.4798177  0.8751814    0.00000       Uiso       1.00
       H39          H  0.8828468  0.4915075  0.8352538    0.00000       Uiso       1.00
       H40          H  0.9473471  0.4538779  0.8290027    0.00000       Uiso       1.00
      C228          C  0.9691844  0.4594176  0.8720227    0.00000       Uiso       1.00
      C229          C  0.9785526  0.4635617  0.8948857    0.00000       Uiso       1.00
      C230          C  0.9305397  0.4434214  0.9730793    0.00000       Uiso       1.00
      C231          C  0.9346811  0.4527742  0.9637109    0.00000       Uiso       1.00
       F81          F  0.9259230  0.4471140  0.9393424    0.00000       Uiso       1.00
       F82          F  0.9174891  0.4282153  0.9583184    0.00000       Uiso       1.00
       F83          F  0.9839410  0.4463683  0.8585219    0.00000       Uiso       1.00
       F84          F  0.0029219  0.4548100  0.9048409    0.00000       Uiso       1.00
      C232          C  0.9434028  0.5727853  0.9873210    0.00000       Uiso       1.00
      C233          C  0.9383665  0.5628462  0.9953502    0.00000       Uiso       1.00
      C234          C  0.9475234  0.5397412  0.9907959    0.00000       Uiso       1.00
      C235          C  0.9578274  0.5595657  0.9750157    0.00000       Uiso       1.00
      C236          C  0.9670987  0.5365671  0.9708309    0.00000       Uiso       1.00
      C237          C  0.9623278  0.5259991  0.9786233    0.00000       Uiso       1.00
       H41          H  0.9812983  0.5066702  0.0145894    0.00000       Uiso       1.00
       H42          H  0.0037947  0.5212379  0.9998529    0.00000       Uiso       1.00
      C238          C  0.9549332  0.4722722  0.0000085    0.00000       Uiso       1.00
      C239          C  0.9672461  0.4866901  0.0135182    0.00000       Uiso       1.00
      C240          C  0.9714305  0.4959631  0.0039759    0.00000       Uiso       1.00
      C241          C  0.9468945  0.4672457  0.9770038    0.00000       Uiso       1.00
      C242          C  0.9514508  0.4764018  0.9676101    0.00000       Uiso       1.00
      C243          C  0.9636338  0.4911968  0.9808445    0.00000       Uiso       1.00
       H43          H  0.9424127  0.5326598  0.9963247    0.00000       Uiso       1.00
       H44          H  0.9276674  0.5101431  0.9445153    0.00000       Uiso       1.00
      C244          C  0.0439190  0.4711150  0.9988538    0.00000       Uiso       1.00
      C245          C  0.0306987  0.4576047  0.9844267    0.00000       Uiso       1.00
      C246          C  0.0076998  0.4671490  0.9751555    0.00000       Uiso       1.00
      C247          C  0.0339805  0.4941208  0.0038922    0.00000       Uiso       1.00
      C248          C  0.0108751  0.5035170  0.9947378    0.00000       Uiso       1.00
      C249          C  0.9971320  0.4902819  0.9799312    0.00000       Uiso       1.00
       H45          H  0.9923740  0.4747920  0.9384688    0.00000       Uiso       1.00
       H46          H  0.9778127  0.5266072  0.9609703    0.00000       Uiso       1.00
      C250          C  0.9422536  0.4838045  0.8983383    0.00000       Uiso       1.00
      C251          C  0.9652596  0.4757711  0.9082778    0.00000       Uiso       1.00
      C252          C  0.9746526  0.4803278  0.9313846    0.00000       Uiso       1.00
      C253          C  0.9287423  0.4961107  0.9115583    0.00000       Uiso       1.00
      C254          C  0.9382837  0.5002933  0.9345572    0.00000       Uiso       1.00
      C255          C  0.9614158  0.4925026  0.9451262    0.00000       Uiso       1.00
       H47          H  0.9977357  0.4565375  0.9644331    0.00000       Uiso       1.00
       H48          H  0.9459138  0.4712984  0.9498886    0.00000       Uiso       1.00
      C256          C  0.0473724  0.5074136  0.0183732    0.00000       Uiso       1.00
      C257          C  0.0702351  0.4980426  0.0277236    0.00000       Uiso       1.00
      C258          C  0.0407246  0.4347065  0.9797809    0.00000       Uiso       1.00
      C259          C  0.0635299  0.4253476  0.9893690    0.00000       Uiso       1.00
      C260          C  0.9238842  0.5762365  0.0075539    0.00000       Uiso       1.00
      C261          C  0.9145307  0.5991000  0.0116967    0.00000       Uiso       1.00
      C262          C  0.9624748  0.5695927  0.9667908    0.00000       Uiso       1.00
      C263          C  0.9528866  0.5924010  0.9706544    0.00000       Uiso       1.00
      C264          C  0.9058440  0.5043384  0.9015313    0.00000       Uiso       1.00
      C265          C  0.8964899  0.5004783  0.8787249    0.00000       Uiso       1.00
      C266          C  0.9754802  0.4913279  0.0364163    0.00000       Uiso       1.00
      C267          C  0.9716179  0.4817388  0.0457721    0.00000       Uiso       1.00
       F85          F  0.0733988  0.4010142  0.9840701    0.00000       Uiso       1.00
       F86          F  0.0272052  0.4199598  0.9646873    0.00000       Uiso       1.00
       F87          F  0.0374207  0.5317833  0.0240447    0.00000       Uiso       1.00
       F88          F  0.0837317  0.5128021  0.0429399    0.00000       Uiso       1.00
       F89          F  0.9775685  0.5560767  0.9536182    0.00000       Uiso       1.00
       F90          F  0.9581841  0.6022773  0.9614951    0.00000       Uiso       1.00
       F91          F  0.9182125  0.5662848  0.0163006    0.00000       Uiso       1.00
       F92          F  0.8993135  0.6126019  0.0247360    0.00000       Uiso       1.00
       F93          F  0.9807898  0.4870285  0.0701041    0.00000       Uiso       1.00
       F94          F  0.9886627  0.5064121  0.0511621    0.00000       Uiso       1.00
       F95          F  0.8721571  0.5096433  0.8688532    0.00000       Uiso       1.00
       F96          F  0.8910969  0.5175085  0.9150505    0.00000       Uiso       1.00
      C268          C  0.7134995  0.8838295  0.0100382    0.00000       Uiso       1.00
      C269          C  0.7020721  0.9049224  0.0084220    0.00000       Uiso       1.00
      C270          C  0.6791593  0.9146113  0.0048894    0.00000       Uiso       1.00
      C271          C  0.7020721  0.8725479  0.0084220    0.00000       Uiso       1.00
      C272          C  0.6792331  0.8822137  0.0050306    0.00000       Uiso       1.00
      C273          C  0.6671772  0.9034487  0.0030638    0.00000       Uiso       1.00
      C274          C  0.4126948  0.1846328  0.0584261    0.00000       Uiso       1.00
      C275          C  0.4337875  0.1732052  0.0697076    0.00000       Uiso       1.00
      C276          C  0.4435697  0.1503665  0.0600426    0.00000       Uiso       1.00
      C277          C  0.4014135  0.1732056  0.0373336    0.00000       Uiso       1.00
      C278          C  0.4111051  0.1502928  0.0276451    0.00000       Uiso       1.00
      C279          C  0.4324236  0.1383116  0.0388087    0.00000       Uiso       1.00
      C280          C  0.4126949  0.9322174  0.0584260    0.00000       Uiso       1.00
      C281          C  0.4014135  0.9338339  0.0373335    0.00000       Uiso       1.00
      C282          C  0.4110775  0.9372284  0.0275527    0.00000       Uiso       1.00
      C283          C  0.4337875  0.9338335  0.0697075    0.00000       Uiso       1.00
      C284          C  0.4434748  0.9373699  0.0600179    0.00000       Uiso       1.00
      C285          C  0.4323105  0.9391984  0.0386997    0.00000       Uiso       1.00
      C286          C  0.4610877  0.8838336  0.7576261    0.00000       Uiso       1.00
      C287          C  0.4627039  0.8725518  0.7690533    0.00000       Uiso       1.00
      C288          C  0.4662359  0.8822430  0.7919658    0.00000       Uiso       1.00
      C289          C  0.4627039  0.9049263  0.7690533    0.00000       Uiso       1.00
      C290          C  0.4660942  0.9147082  0.7918919    0.00000       Uiso       1.00
      C291          C  0.4680606  0.9035621  0.8039472    0.00000       Uiso       1.00
      C292          C  0.4999939  0.9711317  0.9711311    0.00000       Uiso       1.00
       F97          F  0.7139304  0.9172850  0.0101690    0.00000       Uiso       1.00
       F98          F  0.4609570  0.8500779  0.7571952    0.00000       Uiso       1.00
       F99          F  0.4461499  0.1850633  0.0921813    0.00000       Uiso       1.00
      F100          F  0.3789396  0.9320871  0.0249710    0.00000       Uiso       1.00
      F101          F  0.7139304  0.8500738  0.0101690    0.00000       Uiso       1.00
      F102          F  0.3789396  0.1850642  0.0249711    0.00000       Uiso       1.00
      F103          F  0.4461499  0.9320862  0.0921812    0.00000       Uiso       1.00
      F104          F  0.4609570  0.9172892  0.7571952    0.00000       Uiso       1.00
      F105          F  0.6676021  0.9368254  0.0025441    0.00000       Uiso       1.00
      F106          F  0.6680395  0.8696012  0.0039409    0.00000       Uiso       1.00
      F107          F  0.4671841  0.9374243  0.8030851    0.00000       Uiso       1.00
      F108          F  0.4685841  0.8692390  0.8035231    0.00000       Uiso       1.00
      F109          F  0.4662853  0.1391729  0.0726559    0.00000       Uiso       1.00
      F110          F  0.3981008  0.1387377  0.0054320    0.00000       Uiso       1.00
      F111          F  0.4656865  0.9397200  0.0730275    0.00000       Uiso       1.00
      F112          F  0.3984640  0.9383240  0.0048388    0.00000       Uiso       1.00
      C293          C  0.6424313  0.9136875  0.9990267    0.00000       Uiso       1.00
      C294          C  0.6321789  0.9367424  0.0074111    0.00000       Uiso       1.00
      C295          C  0.6091805  0.9462808  0.0035560    0.00000       Uiso       1.00
      C296          C  0.6287593  0.9004598  0.9866838    0.00000       Uiso       1.00
      C297          C  0.6057937  0.9097766  0.9828926    0.00000       Uiso       1.00
      C298          C  0.5959417  0.9327630  0.9913080    0.00000       Uiso       1.00
       H49          H  0.6358700  0.8828455  0.9796277    0.00000       Uiso       1.00
       H50          H  0.6421162  0.9473505  0.0172322    0.00000       Uiso       1.00
      C299          C  0.4428953  0.1135667  0.0285732    0.00000       Uiso       1.00
      C300          C  0.4574445  0.0998943  0.0418015    0.00000       Uiso       1.00
      C301          C  0.4673033  0.0769292  0.0324861    0.00000       Uiso       1.00
      C302          C  0.4384862  0.1033162  0.0055198    0.00000       Uiso       1.00
      C303          C  0.4480927  0.0803200  0.9959838    0.00000       Uiso       1.00
      C304          C  0.4625931  0.0670793  0.0095011    0.00000       Uiso       1.00
       H51          H  0.4277707  0.1132506  0.9949082    0.00000       Uiso       1.00
       H52          H  0.4608850  0.1070049  0.0594160    0.00000       Uiso       1.00
      C305          C  0.4425445  0.9432394  0.0282282    0.00000       Uiso       1.00
      C306          C  0.4293135  0.9555832  0.0136707    0.00000       Uiso       1.00
      C307          C  0.4386292  0.9593750  0.0038102    0.00000       Uiso       1.00
      C308          C  0.4655988  0.9348545  0.0326454    0.00000       Uiso       1.00
      C309          C  0.4751347  0.9387108  0.0230405    0.00000       Uiso       1.00
      C310          C  0.4616178  0.9509583  0.0085303    0.00000       Uiso       1.00
       H53          H  0.4762112  0.9250317  0.0433662    0.00000       Uiso       1.00
       H54          H  0.4116963  0.9626386  0.0102274    0.00000       Uiso       1.00
      C311          C  0.4720975  0.9140330  0.8286930    0.00000       Uiso       1.00
      C312          C  0.4637058  0.9096209  0.8389438    0.00000       Uiso       1.00
      C313          C  0.4675627  0.9192237  0.8619420    0.00000       Uiso       1.00
      C314          C  0.4844465  0.9285836  0.8423653    0.00000       Uiso       1.00
      C315          C  0.4882370  0.9384415  0.8653305    0.00000       Uiso       1.00
      C316          C  0.4798169  0.9337270  0.8751814    0.00000       Uiso       1.00
       H55          H  0.4915066  0.9320260  0.8352539    0.00000       Uiso       1.00
       H56          H  0.4538771  0.8989041  0.8290027    0.00000       Uiso       1.00
      C317          C  0.4594168  0.9145460  0.8720227    0.00000       Uiso       1.00
      C318          C  0.4635608  0.9238960  0.8948857    0.00000       Uiso       1.00
      C319          C  0.4434207  0.0702402  0.9730793    0.00000       Uiso       1.00
      C320          C  0.4527735  0.0473780  0.9637110    0.00000       Uiso       1.00
      F113          F  0.4471133  0.0374284  0.9393425    0.00000       Uiso       1.00
      F114          F  0.4282146  0.0837365  0.9583184    0.00000       Uiso       1.00
      F115          F  0.4463675  0.8993383  0.8585220    0.00000       Uiso       1.00
      F116          F  0.4548091  0.9182341  0.9048409    0.00000       Uiso       1.00
      C321          C  0.5727844  0.9422552  0.9873210    0.00000       Uiso       1.00
      C322          C  0.5628453  0.9652597  0.9953503    0.00000       Uiso       1.00
      C323          C  0.5397403  0.9746536  0.9907960    0.00000       Uiso       1.00
      C324          C  0.5595647  0.9287453  0.9750158    0.00000       Uiso       1.00
      C325          C  0.5365661  0.9382879  0.9708309    0.00000       Uiso       1.00
      C326          C  0.5259982  0.9614190  0.9786234    0.00000       Uiso       1.00
       H57          H  0.5066696  0.9977407  0.0145895    0.00000       Uiso       1.00
       H58          H  0.5212369  0.9459429  0.9998530    0.00000       Uiso       1.00
      C327          C  0.4722717  0.0439228  0.0000086    0.00000       Uiso       1.00
      C328          C  0.4866897  0.0307011  0.0135182    0.00000       Uiso       1.00
      C329          C  0.4959626  0.0077018  0.0039760    0.00000       Uiso       1.00
      C330          C  0.4672450  0.0339855  0.9770038    0.00000       Uiso       1.00
      C331          C  0.4764011  0.0108797  0.9676102    0.00000       Uiso       1.00
      C332          C  0.4911959  0.9971364  0.9808445    0.00000       Uiso       1.00
       H59          H  0.5326589  0.9923744  0.9963247    0.00000       Uiso       1.00
       H60          H  0.5101421  0.9778284  0.9445153    0.00000       Uiso       1.00
      C333          C  0.4711140  0.9549424  0.9988538    0.00000       Uiso       1.00
      C334          C  0.4576038  0.9672461  0.9844267    0.00000       Uiso       1.00
      C335          C  0.4671482  0.9714299  0.9751555    0.00000       Uiso       1.00
      C336          C  0.4941202  0.9469116  0.0038923    0.00000       Uiso       1.00
      C337          C  0.5035161  0.9514685  0.9947379    0.00000       Uiso       1.00
      C338          C  0.4902810  0.9636398  0.9799312    0.00000       Uiso       1.00
       H61          H  0.4747911  0.9424264  0.9384689    0.00000       Uiso       1.00
       H62          H  0.5266063  0.9276734  0.9609704    0.00000       Uiso       1.00
      C339          C  0.4838036  0.9434047  0.8983383    0.00000       Uiso       1.00
      C340          C  0.4757702  0.9383715  0.9082779    0.00000       Uiso       1.00
      C341          C  0.4803269  0.9475279  0.9313846    0.00000       Uiso       1.00
      C342          C  0.4961098  0.9578296  0.9115583    0.00000       Uiso       1.00
      C343          C  0.5002923  0.9671041  0.9345573    0.00000       Uiso       1.00
      C344          C  0.4925016  0.9623314  0.9451263    0.00000       Uiso       1.00
       H63          H  0.4565367  0.9812828  0.9644332    0.00000       Uiso       1.00
       H64          H  0.4712977  0.0037992  0.9498886    0.00000       Uiso       1.00
      C345          C  0.5074129  0.9347075  0.0183732    0.00000       Uiso       1.00
      C346          C  0.4980420  0.9305658  0.0277237    0.00000       Uiso       1.00
      C347          C  0.4347056  0.9754729  0.9797810    0.00000       Uiso       1.00
      C348          C  0.4253467  0.9716142  0.9893690    0.00000       Uiso       1.00
      C349          C  0.5762357  0.9785534  0.0075540    0.00000       Uiso       1.00
      C350          C  0.5990992  0.9691859  0.0116967    0.00000       Uiso       1.00
      C351          C  0.5695916  0.9058462  0.9667908    0.00000       Uiso       1.00
      C352          C  0.5924000  0.8964896  0.9706545    0.00000       Uiso       1.00
      C353          C  0.5043375  0.9624734  0.9015313    0.00000       Uiso       1.00
      C354          C  0.5004774  0.9528819  0.8787249    0.00000       Uiso       1.00
      C355          C  0.4913274  0.0407268  0.0364163    0.00000       Uiso       1.00
      C356          C  0.4817384  0.0635338  0.0457722    0.00000       Uiso       1.00
      F117          F  0.4010135  0.9807799  0.9840701    0.00000       Uiso       1.00
      F118          F  0.4199590  0.9886458  0.9646874    0.00000       Uiso       1.00
      F119          F  0.5317826  0.9259608  0.0240447    0.00000       Uiso       1.00
      F120          F  0.5128014  0.9175257  0.0429399    0.00000       Uiso       1.00
      F121          F  0.5560757  0.8910962  0.9536183    0.00000       Uiso       1.00
      F122          F  0.6022763  0.8721567  0.9614952    0.00000       Uiso       1.00
      F123          F  0.5662842  0.0029224  0.0163006    0.00000       Uiso       1.00
      F124          F  0.6126010  0.9839404  0.0247360    0.00000       Uiso       1.00
      F125          F  0.4870281  0.0734034  0.0701041    0.00000       Uiso       1.00
      F126          F  0.5064117  0.0272054  0.0511621    0.00000       Uiso       1.00
      F127          F  0.5096424  0.9581782  0.8688532    0.00000       Uiso       1.00
      F128          F  0.5175076  0.9775693  0.9150505    0.00000       Uiso       1.00
      C357          C  0.7135056  0.8838360  0.5872995    0.00000       Uiso       1.00
      C358          C  0.7020785  0.8725545  0.5662070    0.00000       Uiso       1.00
      C359          C  0.6791657  0.8822461  0.5565183    0.00000       Uiso       1.00
      C360          C  0.7020780  0.9049287  0.5985810    0.00000       Uiso       1.00
      C361          C  0.6792392  0.9147106  0.5889155    0.00000       Uiso       1.00
      C362          C  0.6671836  0.9035650  0.5676807    0.00000       Uiso       1.00
      C363          C  0.4127056  0.9322285  0.2864994    0.00000       Uiso       1.00
      C364          C  0.4337982  0.9338446  0.2979266    0.00000       Uiso       1.00
      C365          C  0.4435799  0.9372360  0.3207652    0.00000       Uiso       1.00
      C366          C  0.4014237  0.9338446  0.2979267    0.00000       Uiso       1.00
      C367          C  0.4111149  0.9373772  0.3208393    0.00000       Uiso       1.00
      C368          C  0.4324334  0.9392031  0.3328201    0.00000       Uiso       1.00
      C369          C  0.4127024  0.1846402  0.5389117    0.00000       Uiso       1.00
      C370          C  0.4014208  0.1732128  0.5372955    0.00000       Uiso       1.00
      C371          C  0.4110848  0.1503737  0.5339012    0.00000       Uiso       1.00
      C372          C  0.4337952  0.1732128  0.5372955    0.00000       Uiso       1.00
      C373          C  0.4434825  0.1502996  0.5337591    0.00000       Uiso       1.00
      C374          C  0.4323179  0.1383175  0.5319309    0.00000       Uiso       1.00
      C375          C  0.4610900  0.8838360  0.5872995    0.00000       Uiso       1.00
      C376          C  0.4627062  0.9049287  0.5985810    0.00000       Uiso       1.00
      C377          C  0.4662386  0.9146178  0.5888897    0.00000       Uiso       1.00
      C378          C  0.4627066  0.8725545  0.5662070    0.00000       Uiso       1.00
      C379          C  0.4660974  0.8822207  0.5564249    0.00000       Uiso       1.00
      C380          C  0.4680638  0.9034554  0.5675707    0.00000       Uiso       1.00
      C381          C  0.5000002  0.9711353  0.4999998    0.00000       Uiso       1.00
      F129          F  0.7139370  0.8500807  0.5538445    0.00000       Uiso       1.00
      F130          F  0.4609588  0.9172910  0.6210548    0.00000       Uiso       1.00
      F131          F  0.4461611  0.9320978  0.2860684    0.00000       Uiso       1.00
      F132          F  0.3789467  0.1850712  0.5390424    0.00000       Uiso       1.00
      F133          F  0.7139361  0.9172910  0.6210548    0.00000       Uiso       1.00
      F134          F  0.3789498  0.9320978  0.2860684    0.00000       Uiso       1.00
      F135          F  0.4461579  0.1850712  0.5390424    0.00000       Uiso       1.00
      F136          F  0.4609598  0.8500807  0.5538445    0.00000       Uiso       1.00
      F137          F  0.6676088  0.8692442  0.5343046    0.00000       Uiso       1.00
      F138          F  0.6680453  0.9374268  0.6015276    0.00000       Uiso       1.00
      F139          F  0.4671878  0.8696081  0.5337090    0.00000       Uiso       1.00
      F140          F  0.4685868  0.9368303  0.6018932    0.00000       Uiso       1.00
      F141          F  0.4662956  0.9383268  0.3319584    0.00000       Uiso       1.00
      F142          F  0.3981101  0.9397236  0.3323945    0.00000       Uiso       1.00
      F143          F  0.4656943  0.1387474  0.5314090    0.00000       Uiso       1.00
      F144          F  0.3984709  0.1391780  0.5328059    0.00000       Uiso       1.00
      C382          C  0.6424372  0.9140363  0.5574427    0.00000       Uiso       1.00
      C383          C  0.6321856  0.9096175  0.5343875    0.00000       Uiso       1.00
      C384          C  0.6091873  0.9192226  0.5248492    0.00000       Uiso       1.00
      C385          C  0.6287649  0.9285933  0.5706705    0.00000       Uiso       1.00
      C386          C  0.6057994  0.9384509  0.5613539    0.00000       Uiso       1.00
      C387          C  0.5959478  0.9337323  0.5383677    0.00000       Uiso       1.00
       H65          H  0.6358754  0.9320403  0.5882846    0.00000       Uiso       1.00
       H66          H  0.6421233  0.8988931  0.5237794    0.00000       Uiso       1.00
      C388          C  0.4429046  0.9432406  0.3575648    0.00000       Uiso       1.00
      C389          C  0.4574539  0.9555917  0.3712368    0.00000       Uiso       1.00
      C390          C  0.4673122  0.9593825  0.3942018    0.00000       Uiso       1.00
      C391          C  0.4384950  0.9348470  0.3678155    0.00000       Uiso       1.00
      C392          C  0.4481007  0.9387016  0.3908122    0.00000       Uiso       1.00
      C393          C  0.4626016  0.9509577  0.4040518    0.00000       Uiso       1.00
       H67          H  0.4277792  0.9250179  0.3578820    0.00000       Uiso       1.00
       H68          H  0.4608946  0.9626551  0.3641261    0.00000       Uiso       1.00
      C394          C  0.4425518  0.1135713  0.5278902    0.00000       Uiso       1.00
      C395          C  0.4293208  0.0999014  0.5155469    0.00000       Uiso       1.00
      C396          C  0.4386363  0.0769336  0.5117552    0.00000       Uiso       1.00
      C397          C  0.4656061  0.1033188  0.5362749    0.00000       Uiso       1.00
      C398          C  0.4751419  0.0803219  0.5324189    0.00000       Uiso       1.00
      C399          C  0.4616250  0.0670815  0.5201718    0.00000       Uiso       1.00
       H69          H  0.4762185  0.1132497  0.5460975    0.00000       Uiso       1.00
       H70          H  0.4117037  0.1070199  0.5084916    0.00000       Uiso       1.00
      C400          C  0.4721011  0.9136932  0.5570996    0.00000       Uiso       1.00
      C401          C  0.4637096  0.9367477  0.5615116    0.00000       Uiso       1.00
      C402          C  0.4675668  0.9462861  0.5519086    0.00000       Uiso       1.00
      C403          C  0.4844505  0.9004660  0.5425491    0.00000       Uiso       1.00
      C404          C  0.4882415  0.9097827  0.5326910    0.00000       Uiso       1.00
      C405          C  0.4798214  0.9327681  0.5374053    0.00000       Uiso       1.00
       H71          H  0.4915106  0.8828523  0.5391068    0.00000       Uiso       1.00
       H72          H  0.4538805  0.9473522  0.5722283    0.00000       Uiso       1.00
      C406          C  0.4594210  0.9691902  0.5565860    0.00000       Uiso       1.00
      C407          C  0.4635656  0.9785590  0.5472358    0.00000       Uiso       1.00
      C408          C  0.4434283  0.9305491  0.4008921    0.00000       Uiso       1.00
      C409          C  0.4527806  0.9346900  0.4237541    0.00000       Uiso       1.00
      F145          F  0.4471200  0.9259314  0.4337039    0.00000       Uiso       1.00
      F146          F  0.4282222  0.9174983  0.3873961    0.00000       Uiso       1.00
      F147          F  0.4463714  0.9839464  0.5717937    0.00000       Uiso       1.00
      F148          F  0.4548140  0.0029270  0.5528975    0.00000       Uiso       1.00
      C410          C  0.5727905  0.9434106  0.5288756    0.00000       Uiso       1.00
      C411          C  0.5628519  0.9383747  0.5058714    0.00000       Uiso       1.00
      C412          C  0.5397469  0.9475316  0.4964777    0.00000       Uiso       1.00
      C413          C  0.5595705  0.9578349  0.5423856    0.00000       Uiso       1.00
      C414          C  0.5365720  0.9671062  0.5328432    0.00000       Uiso       1.00
      C415          C  0.5260044  0.9623357  0.5097122    0.00000       Uiso       1.00
       H73          H  0.5066773  0.9813076  0.4733899    0.00000       Uiso       1.00
       H74          H  0.5212435  0.0038016  0.5251878    0.00000       Uiso       1.00
      C416          C  0.4722797  0.9549428  0.4272080    0.00000       Uiso       1.00
      C417          C  0.4866976  0.9672559  0.4404294    0.00000       Uiso       1.00
      C418          C  0.4959701  0.9714398  0.4634285    0.00000       Uiso       1.00
      C419          C  0.4672522  0.9469033  0.4371462    0.00000       Uiso       1.00
      C420          C  0.4764078  0.9514593  0.4602518    0.00000       Uiso       1.00
      C421          C  0.4912027  0.9636423  0.4739954    0.00000       Uiso       1.00
       H75          H  0.5326658  0.9424213  0.4787571    0.00000       Uiso       1.00
       H76          H  0.5101482  0.9276750  0.4933036    0.00000       Uiso       1.00
      C422          C  0.4711207  0.0439260  0.5161886    0.00000       Uiso       1.00
      C423          C  0.4576105  0.0307056  0.5038851    0.00000       Uiso       1.00
      C424          C  0.4671548  0.0077066  0.4997016    0.00000       Uiso       1.00
      C425          C  0.4941272  0.0339878  0.5242185    0.00000       Uiso       1.00
      C426          C  0.5035226  0.0108819  0.5196624    0.00000       Uiso       1.00
      C427          C  0.4902874  0.9971400  0.5074915    0.00000       Uiso       1.00
       H77          H  0.4747967  0.9923812  0.5287052    0.00000       Uiso       1.00
       H78          H  0.5266119  0.9778200  0.5434576    0.00000       Uiso       1.00
      C428          C  0.4838086  0.9422603  0.5277274    0.00000       Uiso       1.00
      C429          C  0.4757753  0.9652662  0.5327604    0.00000       Uiso       1.00
      C430          C  0.4803325  0.9746597  0.5236038    0.00000       Uiso       1.00
      C431          C  0.4961152  0.9287492  0.5133025    0.00000       Uiso       1.00
      C432          C  0.5002981  0.9382911  0.5040279    0.00000       Uiso       1.00
      C433          C  0.4925075  0.9614233  0.5088004    0.00000       Uiso       1.00
       H79          H  0.4565431  0.9977438  0.4898490    0.00000       Uiso       1.00
       H80          H  0.4713040  0.9459218  0.4673325    0.00000       Uiso       1.00
      C434          C  0.5074199  0.0473798  0.5364222    0.00000       Uiso       1.00
      C435          C  0.4980491  0.0702426  0.5405636    0.00000       Uiso       1.00
      C436          C  0.4347124  0.0407316  0.4956586    0.00000       Uiso       1.00
      C437          C  0.4253535  0.0635370  0.4995170    0.00000       Uiso       1.00
      C438          C  0.5762430  0.9238931  0.4925771    0.00000       Uiso       1.00
      C439          C  0.5991064  0.9145396  0.5019444    0.00000       Uiso       1.00
      C440          C  0.5695971  0.9624817  0.5652844    0.00000       Uiso       1.00
      C441          C  0.5924053  0.9528936  0.5746408    0.00000       Uiso       1.00
      C442          C  0.5043428  0.9058509  0.5086589    0.00000       Uiso       1.00
      C443          C  0.5004823  0.8964962  0.5182506    0.00000       Uiso       1.00
      C444          C  0.4913359  0.9754904  0.4304036    0.00000       Uiso       1.00
      C445          C  0.4817472  0.9716285  0.4075967    0.00000       Uiso       1.00
      F149          F  0.4010203  0.0734059  0.4903516    0.00000       Uiso       1.00
      F150          F  0.4199657  0.0272121  0.4824861    0.00000       Uiso       1.00
      F151          F  0.5317896  0.0374280  0.5451686    0.00000       Uiso       1.00
      F152          F  0.5128086  0.0837392  0.5536034    0.00000       Uiso       1.00
      F153          F  0.5560808  0.9775752  0.5800343    0.00000       Uiso       1.00
      F154          F  0.6022812  0.9581907  0.5989735    0.00000       Uiso       1.00
      F155          F  0.5662919  0.9182219  0.4682077    0.00000       Uiso       1.00
      F156          F  0.6126087  0.8993227  0.4871900    0.00000       Uiso       1.00
      F157          F  0.4870374  0.9808010  0.3977270    0.00000       Uiso       1.00
      F158          F  0.5064201  0.9886730  0.4439245    0.00000       Uiso       1.00
      F159          F  0.5096472  0.8721634  0.5129545    0.00000       Uiso       1.00
      F160          F  0.5175133  0.8911042  0.4935630    0.00000       Uiso       1.00
      C446          C  0.8838282  0.8838295  0.0100382    0.00000       Uiso       1.00
      C447          C  0.9049211  0.8725479  0.0084220    0.00000       Uiso       1.00
      C448          C  0.9146100  0.8822393  0.0048894    0.00000       Uiso       1.00
      C449          C  0.8725466  0.9049224  0.0084220    0.00000       Uiso       1.00
      C450          C  0.8822123  0.9147043  0.0050306    0.00000       Uiso       1.00
      C451          C  0.9034474  0.9035584  0.0030638    0.00000       Uiso       1.00
      C452          C  0.1846323  0.9322174  0.0584260    0.00000       Uiso       1.00
      C453          C  0.1732048  0.9338335  0.0697076    0.00000       Uiso       1.00
      C454          C  0.1503661  0.9372253  0.0600425    0.00000       Uiso       1.00
      C455          C  0.1732052  0.9338340  0.0373335    0.00000       Uiso       1.00
      C456          C  0.1502924  0.9373670  0.0276451    0.00000       Uiso       1.00
      C457          C  0.1383112  0.9391930  0.0388087    0.00000       Uiso       1.00
      C458          C  0.9322162  0.1846325  0.0584259    0.00000       Uiso       1.00
      C459          C  0.9338327  0.1732054  0.0373334    0.00000       Uiso       1.00
      C460          C  0.9372272  0.1503663  0.0275527    0.00000       Uiso       1.00
      C461          C  0.9338323  0.1732050  0.0697075    0.00000       Uiso       1.00
      C462          C  0.9373689  0.1502918  0.0600179    0.00000       Uiso       1.00
      C463          C  0.9391972  0.1383100  0.0386997    0.00000       Uiso       1.00
      C464          C  0.8838321  0.8838337  0.7576261    0.00000       Uiso       1.00
      C465          C  0.8725503  0.9049264  0.7690533    0.00000       Uiso       1.00
      C466          C  0.8822415  0.9146150  0.7919658    0.00000       Uiso       1.00
      C467          C  0.9049248  0.8725519  0.7690533    0.00000       Uiso       1.00
      C468          C  0.9147066  0.8822175  0.7918918    0.00000       Uiso       1.00
      C469          C  0.9035605  0.9034523  0.8039472    0.00000       Uiso       1.00
      C470          C  0.9711301  0.9711289  0.9711311    0.00000       Uiso       1.00
      F161          F  0.9172837  0.8500738  0.0101690    0.00000       Uiso       1.00
      F162          F  0.8500764  0.9172893  0.7571951    0.00000       Uiso       1.00
      F163          F  0.1850629  0.9320862  0.0921813    0.00000       Uiso       1.00
      F164          F  0.9320859  0.1850640  0.0249709    0.00000       Uiso       1.00
      F165          F  0.8500726  0.9172850  0.0101690    0.00000       Uiso       1.00
      F166          F  0.1850638  0.9320871  0.0249710    0.00000       Uiso       1.00
      F167          F  0.9320850  0.1850630  0.0921812    0.00000       Uiso       1.00
      F168          F  0.9172875  0.8500779  0.7571951    0.00000       Uiso       1.00
      F169          F  0.9368240  0.8692372  0.0025441    0.00000       Uiso       1.00
      F170          F  0.8696001  0.9374207  0.0039409    0.00000       Uiso       1.00
      F171          F  0.9374227  0.8696045  0.8030851    0.00000       Uiso       1.00
      F172          F  0.8692375  0.9368277  0.8035230    0.00000       Uiso       1.00
      F173          F  0.1391726  0.9383162  0.0726559    0.00000       Uiso       1.00
      F174          F  0.1387374  0.9397138  0.0054319    0.00000       Uiso       1.00
      F175          F  0.9397188  0.1387394  0.0730275    0.00000       Uiso       1.00
      F176          F  0.9383228  0.1391710  0.0048387    0.00000       Uiso       1.00
      C471          C  0.9136860  0.9140304  0.9990267    0.00000       Uiso       1.00
      C472          C  0.9367411  0.9096103  0.0074111    0.00000       Uiso       1.00
      C473          C  0.9462795  0.9192154  0.0035560    0.00000       Uiso       1.00
      C474          C  0.9004582  0.9285876  0.9866838    0.00000       Uiso       1.00
      C475          C  0.9097750  0.9384452  0.9828926    0.00000       Uiso       1.00
      C476          C  0.9327614  0.9337261  0.9913080    0.00000       Uiso       1.00
       H81          H  0.8828440  0.9320351  0.9796277    0.00000       Uiso       1.00
       H82          H  0.9473491  0.8988858  0.0172322    0.00000       Uiso       1.00
      C477          C  0.1135664  0.9432309  0.0285732    0.00000       Uiso       1.00
      C478          C  0.0998941  0.9555820  0.0418015    0.00000       Uiso       1.00
      C479          C  0.0769289  0.9593732  0.0324861    0.00000       Uiso       1.00
      C480          C  0.1033159  0.9348378  0.0055198    0.00000       Uiso       1.00
      C481          C  0.0803194  0.9386934  0.9959837    0.00000       Uiso       1.00
      C482          C  0.0670790  0.9509489  0.0095011    0.00000       Uiso       1.00
       H83          H  0.1132500  0.9250093  0.9949082    0.00000       Uiso       1.00
       H84          H  0.1070046  0.9626450  0.0594160    0.00000       Uiso       1.00
      C483          C  0.9432382  0.1135639  0.0282282    0.00000       Uiso       1.00
      C484          C  0.9555819  0.0998940  0.0136707    0.00000       Uiso       1.00
      C485          C  0.9593738  0.0769263  0.0038102    0.00000       Uiso       1.00
      C486          C  0.9348534  0.1033114  0.0326453    0.00000       Uiso       1.00
      C487          C  0.9387096  0.0803146  0.0230404    0.00000       Uiso       1.00
      C488          C  0.9509570  0.0670742  0.0085303    0.00000       Uiso       1.00
       H85          H  0.9250305  0.1132423  0.0433662    0.00000       Uiso       1.00
       H86          H  0.9626373  0.1070125  0.0102273    0.00000       Uiso       1.00
      C489          C  0.9140314  0.9136896  0.8286929    0.00000       Uiso       1.00
      C490          C  0.9096193  0.9367440  0.8389438    0.00000       Uiso       1.00
      C491          C  0.9192221  0.9462819  0.8619420    0.00000       Uiso       1.00
      C492          C  0.9285820  0.9004619  0.8423651    0.00000       Uiso       1.00
      C493          C  0.9384398  0.9097782  0.8653305    0.00000       Uiso       1.00
      C494          C  0.9337254  0.9327635  0.8751814    0.00000       Uiso       1.00
       H87          H  0.9320244  0.8828482  0.8352538    0.00000       Uiso       1.00
       H88          H  0.8989025  0.9473488  0.8290027    0.00000       Uiso       1.00
      C495          C  0.9145444  0.9691860  0.8720227    0.00000       Uiso       1.00
      C496          C  0.9238944  0.9785542  0.8948857    0.00000       Uiso       1.00
      C497          C  0.0702397  0.9305413  0.9730793    0.00000       Uiso       1.00
      C498          C  0.0473775  0.9346827  0.9637110    0.00000       Uiso       1.00
      F177          F  0.0374279  0.9259245  0.9393424    0.00000       Uiso       1.00
      F178          F  0.0837360  0.9174906  0.9583184    0.00000       Uiso       1.00
      F179          F  0.8993367  0.9839426  0.8585220    0.00000       Uiso       1.00
      F180          F  0.9182327  0.0029223  0.9048409    0.00000       Uiso       1.00
      C499          C  0.9422536  0.9434043  0.9873210    0.00000       Uiso       1.00
      C500          C  0.9652581  0.9383681  0.9953503    0.00000       Uiso       1.00
      C501          C  0.9746519  0.9475249  0.9907959    0.00000       Uiso       1.00
      C502          C  0.9287436  0.9578290  0.9750157    0.00000       Uiso       1.00
      C503          C  0.9382862  0.9671003  0.9708309    0.00000       Uiso       1.00
      C504          C  0.9614174  0.9623293  0.9786233    0.00000       Uiso       1.00
       H89          H  0.9977393  0.9812996  0.0145895    0.00000       Uiso       1.00
       H90          H  0.9459414  0.0037951  0.9998529    0.00000       Uiso       1.00
      C505          C  0.0439226  0.9549344  0.0000085    0.00000       Uiso       1.00
      C506          C  0.0307009  0.9672475  0.0135182    0.00000       Uiso       1.00
      C507          C  0.0077016  0.9714319  0.0039759    0.00000       Uiso       1.00
      C508          C  0.0339850  0.9468961  0.9770038    0.00000       Uiso       1.00
      C509          C  0.0108793  0.9514524  0.9676102    0.00000       Uiso       1.00
      C510          C  0.9971346  0.9636354  0.9808445    0.00000       Uiso       1.00
       H91          H  0.9923726  0.9424142  0.9963247    0.00000       Uiso       1.00
       H92          H  0.9778267  0.9276689  0.9445153    0.00000       Uiso       1.00
      C511          C  0.9549409  0.0439194  0.9988538    0.00000       Uiso       1.00
      C512          C  0.9672447  0.0306991  0.9844267    0.00000       Uiso       1.00
      C513          C  0.9714283  0.0077001  0.9751555    0.00000       Uiso       1.00
      C514          C  0.9469104  0.0339806  0.0038923    0.00000       Uiso       1.00
      C515          C  0.9514670  0.0108755  0.9947378    0.00000       Uiso       1.00
      C516          C  0.9636382  0.9971336  0.9799312    0.00000       Uiso       1.00
       H93          H  0.9424247  0.9923756  0.9384688    0.00000       Uiso       1.00
       H94          H  0.9276718  0.9778144  0.9609704    0.00000       Uiso       1.00
      C517          C  0.9434031  0.9422553  0.8983383    0.00000       Uiso       1.00
      C518          C  0.9383698  0.9652612  0.9082778    0.00000       Uiso       1.00
      C519          C  0.9475263  0.9746543  0.9313846    0.00000       Uiso       1.00
      C520          C  0.9578280  0.9287438  0.9115583    0.00000       Uiso       1.00
      C521          C  0.9671024  0.9382853  0.9345573    0.00000       Uiso       1.00
      C522          C  0.9623296  0.9614173  0.9451262    0.00000       Uiso       1.00
       H95          H  0.9812810  0.9977373  0.9644331    0.00000       Uiso       1.00
       H96          H  0.0037987  0.9459153  0.9498886    0.00000       Uiso       1.00
      C523          C  0.9347063  0.0473726  0.0183732    0.00000       Uiso       1.00
      C524          C  0.9305646  0.0702353  0.0277236    0.00000       Uiso       1.00
      C525          C  0.9754714  0.0407250  0.9797809    0.00000       Uiso       1.00
      C526          C  0.9716128  0.0635304  0.9893690    0.00000       Uiso       1.00
      C527          C  0.9785519  0.9238855  0.0075539    0.00000       Uiso       1.00
      C528          C  0.9691845  0.9145320  0.0116967    0.00000       Uiso       1.00
      C529          C  0.9058447  0.9624763  0.9667908    0.00000       Uiso       1.00
      C530          C  0.8964881  0.9528882  0.9706544    0.00000       Uiso       1.00
      C531          C  0.9624718  0.9058455  0.9015313    0.00000       Uiso       1.00
      C532          C  0.9528803  0.8964914  0.8787249    0.00000       Uiso       1.00
      C533          C  0.0407266  0.9754815  0.0364163    0.00000       Uiso       1.00
      C534          C  0.0635335  0.9716192  0.0457721    0.00000       Uiso       1.00
      F181          F  0.9807785  0.0733992  0.9840701    0.00000       Uiso       1.00
      F182          F  0.9886442  0.0272056  0.9646873    0.00000       Uiso       1.00
      F183          F  0.9259596  0.0374209  0.0240447    0.00000       Uiso       1.00
      F184          F  0.9175246  0.0837319  0.0429399    0.00000       Uiso       1.00
      F185          F  0.8910947  0.9775701  0.9536183    0.00000       Uiso       1.00
      F186          F  0.8721552  0.9581857  0.9614952    0.00000       Uiso       1.00
      F187          F  0.0029222  0.9182138  0.0163006    0.00000       Uiso       1.00
      F188          F  0.9839389  0.8993147  0.0247360    0.00000       Uiso       1.00
      F189          F  0.0734031  0.9807912  0.0701041    0.00000       Uiso       1.00
      F190          F  0.0272052  0.9886641  0.0511621    0.00000       Uiso       1.00
      F191          F  0.9581766  0.8721586  0.8688532    0.00000       Uiso       1.00
      F192          F  0.9775677  0.8910984  0.9150505    0.00000       Uiso       1.00
        B1          B  0.8725446  0.4585975  0.5985891    0.00000       Uiso       1.00
        B2          B  0.7385783  0.4585975  0.5985891    0.00000       Uiso       1.00
        B3          B  0.8725428  0.4585957  0.7325536    0.00000       Uiso       1.00
      C535          C  0.8283404  0.4571077  0.6234888    0.00000       Uiso       1.00
      C536          C  0.8476524  0.4574938  0.6052133    0.00000       Uiso       1.00
       H97          H  0.8151919  0.4571810  0.5893421    0.00000       Uiso       1.00
        O1          O  0.8500299  0.4581551  0.5882546    0.00000       Uiso       1.00
      C537          C  0.8288884  0.4572617  0.6046629    0.00000       Uiso       1.00
      C538          C  0.8091712  0.4571074  0.6427924    0.00000       Uiso       1.00
      C539          C  0.7711979  0.4574935  0.6234807    0.00000       Uiso       1.00
       H98          H  0.7880998  0.4571801  0.6559411    0.00000       Uiso       1.00
        O2          O  0.7512007  0.4581546  0.6211035    0.00000       Uiso       1.00
      C540          C  0.7896434  0.4572612  0.6422446    0.00000       Uiso       1.00
      C541          C  0.8476436  0.4571071  0.6619610    0.00000       Uiso       1.00
      C542          C  0.8659188  0.4574925  0.6999340    0.00000       Uiso       1.00
       H99          H  0.8817906  0.4571797  0.6830319    0.00000       Uiso       1.00
        O3          O  0.8828775  0.4581533  0.7199310    0.00000       Uiso       1.00
      C543          C  0.8664695  0.4572607  0.6814885    0.00000       Uiso       1.00
      C544          C  0.8091714  0.4571077  0.6234888    0.00000       Uiso       1.00
      C545          C  0.7711982  0.4574938  0.6052133    0.00000       Uiso       1.00
        O4          O  0.7512012  0.4581551  0.5882546    0.00000       Uiso       1.00
      H100          H  0.7881007  0.4571810  0.5893421    0.00000       Uiso       1.00
      C546          C  0.7896439  0.4572617  0.6046629    0.00000       Uiso       1.00
      C547          C  0.8476439  0.4571074  0.6427924    0.00000       Uiso       1.00
      C548          C  0.8659199  0.4574935  0.6234807    0.00000       Uiso       1.00
      H101          H  0.8817909  0.4571801  0.6559411    0.00000       Uiso       1.00
        O5          O  0.8828788  0.4581546  0.6211035    0.00000       Uiso       1.00
      C549          C  0.8664701  0.4572612  0.6422446    0.00000       Uiso       1.00
      C550          C  0.8283398  0.4571071  0.6619610    0.00000       Uiso       1.00
      C551          C  0.8476512  0.4574925  0.6999340    0.00000       Uiso       1.00
      H102          H  0.8151906  0.4571797  0.6830319    0.00000       Uiso       1.00
        O6          O  0.8500282  0.4581533  0.7199310    0.00000       Uiso       1.00
      C552          C  0.8288873  0.4572607  0.6814885    0.00000       Uiso       1.00
        B4          B  0.4585948  0.8725442  0.7325536    0.00000       Uiso       1.00
        B5          B  0.4585966  0.7385795  0.5985891    0.00000       Uiso       1.00
        B6          B  0.4585966  0.8725460  0.5985891    0.00000       Uiso       1.00
      C553          C  0.4571063  0.8283412  0.6619611    0.00000       Uiso       1.00
      C554          C  0.4574916  0.8476526  0.6999340    0.00000       Uiso       1.00
      H103          H  0.4571788  0.8151920  0.6830320    0.00000       Uiso       1.00
        O7          O  0.4581524  0.8500295  0.7199310    0.00000       Uiso       1.00
      C555          C  0.4572598  0.8288887  0.6814886    0.00000       Uiso       1.00
      C556          C  0.4571068  0.8091728  0.6234889    0.00000       Uiso       1.00
      C557          C  0.4574929  0.7711995  0.6052134    0.00000       Uiso       1.00
      H104          H  0.4571801  0.7881020  0.5893421    0.00000       Uiso       1.00
        O8          O  0.4581543  0.7512024  0.5882547    0.00000       Uiso       1.00
      C558          C  0.4572609  0.7896453  0.6046630    0.00000       Uiso       1.00
      C559          C  0.4571065  0.8476452  0.6427924    0.00000       Uiso       1.00
      C560          C  0.4574926  0.8659213  0.6234808    0.00000       Uiso       1.00
      H105          H  0.4571792  0.8817924  0.6559411    0.00000       Uiso       1.00
        O9          O  0.4581538  0.8828803  0.6211036    0.00000       Uiso       1.00
      C561          C  0.4572604  0.8664715  0.6422447    0.00000       Uiso       1.00
      C562          C  0.4571065  0.8091725  0.6427924    0.00000       Uiso       1.00
      C563          C  0.4574927  0.7711992  0.6234808    0.00000       Uiso       1.00
       O10          O  0.4581538  0.7512019  0.6211036    0.00000       Uiso       1.00
      H106          H  0.4571792  0.7881011  0.6559411    0.00000       Uiso       1.00
      C564          C  0.4572604  0.7896447  0.6422447    0.00000       Uiso       1.00
      C565          C  0.4571063  0.8476450  0.6619611    0.00000       Uiso       1.00
      C566          C  0.4574916  0.8659202  0.6999340    0.00000       Uiso       1.00
      H107          H  0.4571788  0.8817921  0.6830320    0.00000       Uiso       1.00
       O11          O  0.4581525  0.8828789  0.7199310    0.00000       Uiso       1.00
      C567          C  0.4572599  0.8664710  0.6814886    0.00000       Uiso       1.00
      C568          C  0.4571068  0.8283417  0.6234889    0.00000       Uiso       1.00
      C569          C  0.4574929  0.8476539  0.6052134    0.00000       Uiso       1.00
      H108          H  0.4571801  0.8151932  0.5893421    0.00000       Uiso       1.00
       O12          O  0.4581542  0.8500314  0.5882547    0.00000       Uiso       1.00
      C570          C  0.4572608  0.8288897  0.6046630    0.00000       Uiso       1.00
      C571          C  0.3767616  0.3949153  0.5429373    0.00000       Uiso       1.00
      C572          C  0.3580305  0.3959064  0.5440660    0.00000       Uiso       1.00
      C573          C  0.3400526  0.4154783  0.5462598    0.00000       Uiso       1.00
      C574          C  0.3210026  0.4158698  0.5462500    0.00000       Uiso       1.00
      C575          C  0.3190044  0.3963761  0.5427958    0.00000       Uiso       1.00
      C576          C  0.3372059  0.3767610  0.5402848    0.00000       Uiso       1.00
      C577          C  0.3572962  0.3764607  0.5424443    0.00000       Uiso       1.00
       O13          O  0.3797673  0.4121683  0.5434104    0.00000       Uiso       1.00
      H109          H  0.3408536  0.4305050  0.5480036    0.00000       Uiso       1.00
      H110          H  0.3078914  0.4315422  0.5487308    0.00000       Uiso       1.00
      H111          H  0.3353170  0.3613313  0.5352253    0.00000       Uiso       1.00
      C578          C  0.3949178  0.2424237  0.5429953    0.00000       Uiso       1.00
      C579          C  0.3959115  0.2612983  0.5441372    0.00000       Uiso       1.00
      C580          C  0.4154789  0.2618986  0.5463200    0.00000       Uiso       1.00
      C581          C  0.4158647  0.2805472  0.5463037    0.00000       Uiso       1.00
      C582          C  0.3963691  0.2985825  0.5428482    0.00000       Uiso       1.00
      C583          C  0.3767612  0.2974868  0.5403590    0.00000       Uiso       1.00
      C584          C  0.3764683  0.2798575  0.5425276    0.00000       Uiso       1.00
       O14          O  0.4121653  0.2226296  0.5434386    0.00000       Uiso       1.00
      H112          H  0.4305046  0.2478130  0.5480493    0.00000       Uiso       1.00
      H113          H  0.4315345  0.2804631  0.5487736    0.00000       Uiso       1.00
      H114          H  0.3613274  0.3097390  0.5353012    0.00000       Uiso       1.00
      C585          C  0.2424116  0.3767892  0.5429753    0.00000       Uiso       1.00
      C586          C  0.2612893  0.3580721  0.5441341    0.00000       Uiso       1.00
      C587          C  0.2618929  0.3401043  0.5463477    0.00000       Uiso       1.00
      C588          C  0.2805489  0.3210595  0.5463589    0.00000       Uiso       1.00
      C589          C  0.2985893  0.3190587  0.5429064    0.00000       Uiso       1.00
      C590          C  0.2974917  0.3372579  0.5403876    0.00000       Uiso       1.00
      C591          C  0.2798487  0.3573407  0.5425189    0.00000       Uiso       1.00
       O15          O  0.2226274  0.3797885  0.5434446    0.00000       Uiso       1.00
      H115          H  0.2477992  0.3409091  0.5480794    0.00000       Uiso       1.00
      H116          H  0.2804678  0.3079514  0.5488449    0.00000       Uiso       1.00
      H117          H  0.3097557  0.3353707  0.5353360    0.00000       Uiso       1.00
      C592          C  0.2415149  0.3941053  0.5401210    0.00000       Uiso       1.00
      C593          C  0.2598651  0.3945193  0.5395981    0.00000       Uiso       1.00
      C594          C  0.2590317  0.4125015  0.5372084    0.00000       Uiso       1.00
      C595          C  0.2778220  0.4129700  0.5375608    0.00000       Uiso       1.00
      C596          C  0.2982475  0.3960155  0.5415846    0.00000       Uiso       1.00
      C597          C  0.2988181  0.3782911  0.5444482    0.00000       Uiso       1.00
      C598          C  0.2796560  0.3764032  0.5418867    0.00000       Uiso       1.00
       O16          O  0.2210756  0.4106082  0.5384939    0.00000       Uiso       1.00
      H118          H  0.2436939  0.4261799  0.5349796    0.00000       Uiso       1.00
      H119          H  0.2761027  0.4268302  0.5348326    0.00000       Uiso       1.00
      H120          H  0.3144641  0.3664936  0.5499765    0.00000       Uiso       1.00
      C599          C  0.3756515  0.2415403  0.5401787    0.00000       Uiso       1.00
      C600          C  0.3563712  0.2598981  0.5396762    0.00000       Uiso       1.00
      C601          C  0.3368425  0.2590833  0.5373338    0.00000       Uiso       1.00
      C602          C  0.3179440  0.2778798  0.5377010    0.00000       Uiso       1.00
      C603          C  0.3184914  0.2982958  0.5416878    0.00000       Uiso       1.00
      C604          C  0.3385005  0.2988473  0.5445073    0.00000       Uiso       1.00
      C605          C  0.3569796  0.2796783  0.5419347    0.00000       Uiso       1.00
       O17          O  0.3779615  0.2211039  0.5385582    0.00000       Uiso       1.00
      H121          H  0.3362715  0.2437514  0.5351207    0.00000       Uiso       1.00
      H122          H  0.3030833  0.2761678  0.5350057    0.00000       Uiso       1.00
      H123          H  0.3401909  0.3144843  0.5500194    0.00000       Uiso       1.00
      C606          C  0.3940932  0.3756458  0.5401185    0.00000       Uiso       1.00
      C607          C  0.3945038  0.3563643  0.5396015    0.00000       Uiso       1.00
      C608          C  0.4125078  0.3368399  0.5372655    0.00000       Uiso       1.00
      C609          C  0.4129816  0.3179409  0.5376358    0.00000       Uiso       1.00
      C610          C  0.3959990  0.3184824  0.5416111    0.00000       Uiso       1.00
      C611          C  0.3782473  0.3384878  0.5444149    0.00000       Uiso       1.00
      C612          C  0.3763679  0.3569694  0.5418476    0.00000       Uiso       1.00
       O18          O  0.4106126  0.3779573  0.5385221    0.00000       Uiso       1.00
      H124          H  0.4261990  0.3362775  0.5350611    0.00000       Uiso       1.00
      H125          H  0.4268685  0.3030867  0.5349547    0.00000       Uiso       1.00
      H126          H  0.3664238  0.3401743  0.5499161    0.00000       Uiso       1.00
        B7          B  0.4013245  0.4012056  0.5406013    0.00000       Uiso       1.00
        B8          B  0.4012049  0.2092181  0.5406179    0.00000       Uiso       1.00
        B9          B  0.2092061  0.4013271  0.5405974    0.00000       Uiso       1.00
      C613          C  0.3949187  0.3767664  0.2287462    0.00000       Uiso       1.00
      C614          C  0.3959101  0.3580356  0.2098777    0.00000       Uiso       1.00
      C615          C  0.4154820  0.3400576  0.2092779    0.00000       Uiso       1.00
      C616          C  0.4158738  0.3210079  0.1906295    0.00000       Uiso       1.00
      C617          C  0.3963803  0.3190099  0.1725920    0.00000       Uiso       1.00
      C618          C  0.3767652  0.3372113  0.1736893    0.00000       Uiso       1.00
      C619          C  0.3764648  0.3573014  0.1913197    0.00000       Uiso       1.00
       O19          O  0.4121715  0.3797719  0.2485315    0.00000       Uiso       1.00
      H127          H  0.4305086  0.3408585  0.2233616    0.00000       Uiso       1.00
      H128          H  0.4315463  0.3078967  0.1907100    0.00000       Uiso       1.00
      H129          H  0.3613356  0.3353226  0.1614303    0.00000       Uiso       1.00
      C620          C  0.2424292  0.3949245  0.0943549    0.00000       Uiso       1.00
      C621          C  0.2613035  0.3959178  0.1130809    0.00000       Uiso       1.00
      C622          C  0.2619036  0.4154851  0.1310655    0.00000       Uiso       1.00
      C623          C  0.2805519  0.4158706  0.1501160    0.00000       Uiso       1.00
      C624          C  0.2985872  0.3963749  0.1521111    0.00000       Uiso       1.00
      C625          C  0.2974917  0.3767672  0.1338969    0.00000       Uiso       1.00
      C626          C  0.2798627  0.3764746  0.1138064    0.00000       Uiso       1.00
       O20          O  0.2226352  0.4121720  0.0913650    0.00000       Uiso       1.00
      H130          H  0.2478181  0.4305108  0.1302764    0.00000       Uiso       1.00
      H131          H  0.2804676  0.4315404  0.1632316    0.00000       Uiso       1.00
      H132          H  0.3097438  0.3613333  0.1357730    0.00000       Uiso       1.00
      C627          C  0.3767948  0.2424183  0.0762341    0.00000       Uiso       1.00
      C628          C  0.3580778  0.2612961  0.0752359    0.00000       Uiso       1.00
      C629          C  0.3401102  0.2618999  0.0556584    0.00000       Uiso       1.00
      C630          C  0.3210655  0.2805559  0.0552585    0.00000       Uiso       1.00
      C631          C  0.3190644  0.2985961  0.0747504    0.00000       Uiso       1.00
      C632          C  0.3372632  0.2974981  0.0943703    0.00000       Uiso       1.00
      C633          C  0.3573461  0.2798552  0.0946790    0.00000       Uiso       1.00
       O21          O  0.3797943  0.2226343  0.0589801    0.00000       Uiso       1.00
      H133          H  0.3409153  0.2478064  0.0406381    0.00000       Uiso       1.00
      H134          H  0.3079576  0.2804751  0.0395836    0.00000       Uiso       1.00
      H135          H  0.3353758  0.3097619  0.1097986    0.00000       Uiso       1.00
      C634          C  0.3941106  0.2415213  0.0955076    0.00000       Uiso       1.00
      C635          C  0.3945243  0.2598712  0.1147943    0.00000       Uiso       1.00
      C636          C  0.4125061  0.2590375  0.1343325    0.00000       Uiso       1.00
      C637          C  0.4129744  0.2778277  0.1532386    0.00000       Uiso       1.00
      C638          C  0.3960199  0.2982531  0.1526858    0.00000       Uiso       1.00
      C639          C  0.3782959  0.2988241  0.1326688    0.00000       Uiso       1.00
      C640          C  0.3764082  0.2796622  0.1141806    0.00000       Uiso       1.00
       O22          O  0.4106135  0.2210819  0.0931982    0.00000       Uiso       1.00
      H136          H  0.4261846  0.2436997  0.1349020    0.00000       Uiso       1.00
      H137          H  0.4268344  0.2761080  0.1681075    0.00000       Uiso       1.00
      H138          H  0.3664985  0.3144702  0.1309891    0.00000       Uiso       1.00
      C641          C  0.2415460  0.3756583  0.0770218    0.00000       Uiso       1.00
      C642          C  0.2599038  0.3563779  0.0766018    0.00000       Uiso       1.00
      C643          C  0.2590892  0.3368495  0.0586009    0.00000       Uiso       1.00
      C644          C  0.2778857  0.3179509  0.0581317    0.00000       Uiso       1.00
      C645          C  0.2983015  0.3184981  0.0751081    0.00000       Uiso       1.00
      C646          C  0.2988528  0.3385071  0.0928491    0.00000       Uiso       1.00
      C647          C  0.2796838  0.3569862  0.0947318    0.00000       Uiso       1.00
       O23          O  0.2211098  0.3779685  0.0605161    0.00000       Uiso       1.00
      H139          H  0.2437575  0.3362786  0.0449113    0.00000       Uiso       1.00
      H140          H  0.2761738  0.3030904  0.0442545    0.00000       Uiso       1.00
      H141          H  0.3144896  0.3401974  0.1046641    0.00000       Uiso       1.00
      C648          C  0.3756493  0.3940979  0.2296270    0.00000       Uiso       1.00
      C649          C  0.3563681  0.3945088  0.2112734    0.00000       Uiso       1.00
      C650          C  0.3368436  0.4125127  0.2120889    0.00000       Uiso       1.00
      C651          C  0.3179449  0.4129868  0.1932938    0.00000       Uiso       1.00
      C652          C  0.3184867  0.3960045  0.1728776    0.00000       Uiso       1.00
      C653          C  0.3384921  0.3782528  0.1723275    0.00000       Uiso       1.00
      C654          C  0.3569734  0.3763732  0.1914968    0.00000       Uiso       1.00
       O24          O  0.3779604  0.4106171  0.2500540    0.00000       Uiso       1.00
      H142          H  0.3362809  0.4262038  0.2274219    0.00000       Uiso       1.00
      H143          H  0.3030907  0.4268737  0.1950075    0.00000       Uiso       1.00
      H144          H  0.3401789  0.3664297  0.1566897    0.00000       Uiso       1.00
       B10          B  0.4012086  0.4013288  0.2619348    0.00000       Uiso       1.00
       B11          B  0.2092239  0.4012119  0.0698139    0.00000       Uiso       1.00
       B12          B  0.4013327  0.2092128  0.0699445    0.00000       Uiso       1.00
       B13          B  0.7385781  0.8725461  0.5985891    0.00000       Uiso       1.00
       B14          B  0.8725445  0.7385795  0.5985891    0.00000       Uiso       1.00
       B15          B  0.8725426  0.8725443  0.7325536    0.00000       Uiso       1.00
      C655          C  0.8091713  0.8283418  0.6234888    0.00000       Uiso       1.00
      C656          C  0.7711981  0.8476539  0.6052134    0.00000       Uiso       1.00
      H145          H  0.7881006  0.8151932  0.5893421    0.00000       Uiso       1.00
       O25          O  0.7512010  0.8500314  0.5882546    0.00000       Uiso       1.00
      C657          C  0.7896439  0.8288898  0.6046630    0.00000       Uiso       1.00
      C658          C  0.8476438  0.8091726  0.6427924    0.00000       Uiso       1.00
      C659          C  0.8659198  0.7711993  0.6234807    0.00000       Uiso       1.00
      H146          H  0.8817909  0.7881012  0.6559411    0.00000       Uiso       1.00
       O26          O  0.8828787  0.7512020  0.6211036    0.00000       Uiso       1.00
      C660          C  0.8664700  0.7896448  0.6422446    0.00000       Uiso       1.00
      C661          C  0.8283397  0.8476450  0.6619611    0.00000       Uiso       1.00
      C662          C  0.8476511  0.8659203  0.6999340    0.00000       Uiso       1.00
      H147          H  0.8151906  0.8817921  0.6830320    0.00000       Uiso       1.00
       O27          O  0.8500281  0.8828790  0.7199310    0.00000       Uiso       1.00
      C663          C  0.8288872  0.8664710  0.6814885    0.00000       Uiso       1.00
      C664          C  0.8283402  0.8091728  0.6234888    0.00000       Uiso       1.00
      C665          C  0.8476524  0.7711995  0.6052134    0.00000       Uiso       1.00
       O28          O  0.8500298  0.7512025  0.5882546    0.00000       Uiso       1.00
      H148          H  0.8151918  0.7881020  0.5893421    0.00000       Uiso       1.00
      C666          C  0.8288882  0.7896453  0.6046630    0.00000       Uiso       1.00
      C667          C  0.8091711  0.8476453  0.6427924    0.00000       Uiso       1.00
      C668          C  0.7711978  0.8659213  0.6234807    0.00000       Uiso       1.00
      H149          H  0.7880996  0.8817924  0.6559411    0.00000       Uiso       1.00
       O29          O  0.7512006  0.8828804  0.6211036    0.00000       Uiso       1.00
      C669          C  0.7896433  0.8664715  0.6422446    0.00000       Uiso       1.00
      C670          C  0.8476435  0.8283412  0.6619611    0.00000       Uiso       1.00
      C671          C  0.8659187  0.8476526  0.6999340    0.00000       Uiso       1.00
      H150          H  0.8817905  0.8151920  0.6830320    0.00000       Uiso       1.00
       O30          O  0.8828773  0.8500296  0.7199310    0.00000       Uiso       1.00
      C672          C  0.8664694  0.8288887  0.6814885    0.00000       Uiso       1.00
      C673          C  0.9282022  0.3949196  0.2287464    0.00000       Uiso       1.00
      C674          C  0.9270736  0.3959110  0.2098780    0.00000       Uiso       1.00
      C675          C  0.9248798  0.4154830  0.2092781    0.00000       Uiso       1.00
      C676          C  0.9248899  0.4158747  0.1906297    0.00000       Uiso       1.00
      C677          C  0.9283444  0.3963812  0.1725923    0.00000       Uiso       1.00
      C678          C  0.9308554  0.3767660  0.1736896    0.00000       Uiso       1.00
      C679          C  0.9286957  0.3764656  0.1913200    0.00000       Uiso       1.00
       O31          O  0.9277287  0.4121724  0.2485317    0.00000       Uiso       1.00
      H151          H  0.9231359  0.4305095  0.2233619    0.00000       Uiso       1.00
      H152          H  0.9224091  0.4315472  0.1907102    0.00000       Uiso       1.00
      H153          H  0.9359151  0.3613364  0.1614306    0.00000       Uiso       1.00
      C680          C  0.9281459  0.2424299  0.0943551    0.00000       Uiso       1.00
      C681          C  0.9270039  0.2613042  0.1130811    0.00000       Uiso       1.00
      C682          C  0.9248207  0.2619043  0.1310658    0.00000       Uiso       1.00
      C683          C  0.9248367  0.2805527  0.1501162    0.00000       Uiso       1.00
      C684          C  0.9282923  0.2985879  0.1521114    0.00000       Uiso       1.00
      C685          C  0.9307818  0.2974924  0.1338972    0.00000       Uiso       1.00
      C686          C  0.9286134  0.2798635  0.1138067    0.00000       Uiso       1.00
       O32          O  0.9277027  0.2226359  0.0913652    0.00000       Uiso       1.00
      H154          H  0.9230914  0.2478188  0.1302767    0.00000       Uiso       1.00
      H155          H  0.9223666  0.2804684  0.1632318    0.00000       Uiso       1.00
      H156          H  0.9358396  0.3097446  0.1357733    0.00000       Uiso       1.00
      C687          C  0.9281662  0.3767956  0.0762344    0.00000       Uiso       1.00
      C688          C  0.9270073  0.3580786  0.0752362    0.00000       Uiso       1.00
      C689          C  0.9247940  0.3401110  0.0556587    0.00000       Uiso       1.00
      C690          C  0.9247829  0.3210663  0.0552587    0.00000       Uiso       1.00
      C691          C  0.9282351  0.3190652  0.0747506    0.00000       Uiso       1.00
      C692          C  0.9307537  0.3372640  0.0943706    0.00000       Uiso       1.00
      C693          C  0.9286224  0.3573469  0.0946792    0.00000       Uiso       1.00
       O33          O  0.9276971  0.3797951  0.0589804    0.00000       Uiso       1.00
      H157          H  0.9230624  0.3409161  0.0406383    0.00000       Uiso       1.00
      H158          H  0.9222970  0.3079584  0.0395839    0.00000       Uiso       1.00
      H159          H  0.9358051  0.3353766  0.1097989    0.00000       Uiso       1.00
      C694          C  0.9310202  0.3941115  0.0955078    0.00000       Uiso       1.00
      C695          C  0.9315429  0.3945251  0.1147946    0.00000       Uiso       1.00
      C696          C  0.9339324  0.4125071  0.1343328    0.00000       Uiso       1.00
      C697          C  0.9335796  0.4129753  0.1532389    0.00000       Uiso       1.00
      C698          C  0.9295559  0.3960208  0.1526861    0.00000       Uiso       1.00
      C699          C  0.9266925  0.3782968  0.1326691    0.00000       Uiso       1.00
      C700          C  0.9292542  0.3764091  0.1141808    0.00000       Uiso       1.00
       O34          O  0.9326475  0.4106144  0.0931985    0.00000       Uiso       1.00
      H160          H  0.9361612  0.4261855  0.1349022    0.00000       Uiso       1.00
      H161          H  0.9363077  0.4268353  0.1681078    0.00000       Uiso       1.00
      H162          H  0.9211640  0.3664994  0.1309894    0.00000       Uiso       1.00
      C701          C  0.9309629  0.2415467  0.0770221    0.00000       Uiso       1.00
      C702          C  0.9314653  0.2599045  0.0766021    0.00000       Uiso       1.00
      C703          C  0.9338080  0.2590899  0.0586012    0.00000       Uiso       1.00
      C704          C  0.9334407  0.2778864  0.0581320    0.00000       Uiso       1.00
      C705          C  0.9294537  0.2983023  0.0751083    0.00000       Uiso       1.00
      C706          C  0.9266340  0.2988535  0.0928493    0.00000       Uiso       1.00
      C707          C  0.9292066  0.2796845  0.0947320    0.00000       Uiso       1.00
       O35          O  0.9325836  0.2211105  0.0605164    0.00000       Uiso       1.00
      H163          H  0.9360213  0.2437582  0.0449116    0.00000       Uiso       1.00
      H164          H  0.9361363  0.2761745  0.0442548    0.00000       Uiso       1.00
      H165          H  0.9211215  0.3144904  0.1046643    0.00000       Uiso       1.00
      C708          C  0.9310209  0.3756501  0.2296272    0.00000       Uiso       1.00
      C709          C  0.9315383  0.3563689  0.2112737    0.00000       Uiso       1.00
      C710          C  0.9338742  0.3368444  0.2120892    0.00000       Uiso       1.00
      C711          C  0.9335042  0.3179457  0.1932941    0.00000       Uiso       1.00
      C712          C  0.9295290  0.3184875  0.1728778    0.00000       Uiso       1.00
      C713          C  0.9267253  0.3384929  0.1723278    0.00000       Uiso       1.00
      C714          C  0.9292923  0.3569743  0.1914971    0.00000       Uiso       1.00
       O36          O  0.9326171  0.3779613  0.2500542    0.00000       Uiso       1.00
      H166          H  0.9360784  0.3362817  0.2274222    0.00000       Uiso       1.00
      H167          H  0.9361853  0.3030914  0.1950078    0.00000       Uiso       1.00
      H168          H  0.9212242  0.3401797  0.1566900    0.00000       Uiso       1.00
       B16          B  0.9305376  0.4012094  0.2619350    0.00000       Uiso       1.00
       B17          B  0.9305236  0.2092246  0.0698142    0.00000       Uiso       1.00
       B18          B  0.9305443  0.4013337  0.0699448    0.00000       Uiso       1.00
       B19          B  0.8725384  0.8725398  0.0125314    0.00000       Uiso       1.00
       B20          B  0.8725385  0.7385733  0.0125314    0.00000       Uiso       1.00
       B21          B  0.7385722  0.8725398  0.0125314    0.00000       Uiso       1.00
      C715          C  0.8476383  0.8283357  0.0140209    0.00000       Uiso       1.00
      C716          C  0.8659141  0.8476477  0.0136350    0.00000       Uiso       1.00
      H169          H  0.8817856  0.8151869  0.0139480    0.00000       Uiso       1.00
       O37          O  0.8828731  0.8500249  0.0129739    0.00000       Uiso       1.00
      C717          C  0.8664646  0.8288835  0.0138671    0.00000       Uiso       1.00
      C718          C  0.8283346  0.8091668  0.0140209    0.00000       Uiso       1.00
      C719          C  0.8476465  0.7711933  0.0136350    0.00000       Uiso       1.00
      H170          H  0.8151857  0.7880956  0.0139480    0.00000       Uiso       1.00
       O38          O  0.8500237  0.7511960  0.0129739    0.00000       Uiso       1.00
      C720          C  0.8288823  0.7896391  0.0138671    0.00000       Uiso       1.00
      C721          C  0.8091657  0.8476396  0.0140209    0.00000       Uiso       1.00
      C722          C  0.7711922  0.8659154  0.0136350    0.00000       Uiso       1.00
      H171          H  0.7880944  0.8817869  0.0139480    0.00000       Uiso       1.00
       O39          O  0.7511949  0.8828743  0.0129739    0.00000       Uiso       1.00
      C723          C  0.7896379  0.8664658  0.0138671    0.00000       Uiso       1.00
      C724          C  0.8476383  0.8091668  0.0140209    0.00000       Uiso       1.00
      C725          C  0.8659141  0.7711933  0.0136350    0.00000       Uiso       1.00
       O40          O  0.8828731  0.7511960  0.0129739    0.00000       Uiso       1.00
      H172          H  0.8817857  0.7880956  0.0139480    0.00000       Uiso       1.00
      C726          C  0.8664646  0.7896391  0.0138671    0.00000       Uiso       1.00
      C727          C  0.8283345  0.8476396  0.0140209    0.00000       Uiso       1.00
      C728          C  0.8476465  0.8659154  0.0136350    0.00000       Uiso       1.00
      H173          H  0.8151856  0.8817869  0.0139480    0.00000       Uiso       1.00
       O41          O  0.8500237  0.8828743  0.0129739    0.00000       Uiso       1.00
      C729          C  0.8288823  0.8664658  0.0138671    0.00000       Uiso       1.00
      C730          C  0.8091657  0.8283357  0.0140209    0.00000       Uiso       1.00
      C731          C  0.7711922  0.8476477  0.0136350    0.00000       Uiso       1.00
      H174          H  0.7880944  0.8151869  0.0139480    0.00000       Uiso       1.00
       O42          O  0.7511948  0.8500249  0.0129739    0.00000       Uiso       1.00
      C732          C  0.7896379  0.8288835  0.0138671    0.00000       Uiso       1.00
      C733          C  0.3949067  0.9281913  0.0943662    0.00000       Uiso       1.00
      C734          C  0.3958976  0.9270622  0.1130970    0.00000       Uiso       1.00
      C735          C  0.4154692  0.9248682  0.1310747    0.00000       Uiso       1.00
      C736          C  0.4158605  0.9248777  0.1501244    0.00000       Uiso       1.00
      C737          C  0.3963667  0.9283320  0.1521226    0.00000       Uiso       1.00
      C738          C  0.3767518  0.9308432  0.1339214    0.00000       Uiso       1.00
      C739          C  0.3764519  0.9286840  0.1138314    0.00000       Uiso       1.00
       O43          O  0.4121597  0.9277182  0.0913605    0.00000       Uiso       1.00
      H175          H  0.4304959  0.9231244  0.1302737    0.00000       Uiso       1.00
      H176          H  0.4315328  0.9223967  0.1632354    0.00000       Uiso       1.00
      H177          H  0.3613221  0.9359027  0.1358103    0.00000       Uiso       1.00
      C740          C  0.2424156  0.9281334  0.0762102    0.00000       Uiso       1.00
      C741          C  0.2612901  0.9269916  0.0752166    0.00000       Uiso       1.00
      C742          C  0.2618908  0.9248089  0.0556494    0.00000       Uiso       1.00
      C743          C  0.2805393  0.9248253  0.0552636    0.00000       Uiso       1.00
      C744          C  0.2985743  0.9282805  0.0747590    0.00000       Uiso       1.00
      C745          C  0.2974783  0.9307695  0.0943667    0.00000       Uiso       1.00
      C746          C  0.2798491  0.9286008  0.0946596    0.00000       Uiso       1.00
       O44          O  0.2226218  0.9276904  0.0589630    0.00000       Uiso       1.00
      H178          H  0.2478054  0.9230798  0.0406239    0.00000       Uiso       1.00
      H179          H  0.2804554  0.9223555  0.0395940    0.00000       Uiso       1.00
      H180          H  0.3097303  0.9358271  0.1098003    0.00000       Uiso       1.00
      C747          C  0.3767788  0.9281514  0.2287144    0.00000       Uiso       1.00
      C748          C  0.3580620  0.9269928  0.2098369    0.00000       Uiso       1.00
      C749          C  0.3400942  0.9247792  0.2092333    0.00000       Uiso       1.00
      C750          C  0.3210497  0.9247683  0.1905776    0.00000       Uiso       1.00
      C751          C  0.3190492  0.9282210  0.1725374    0.00000       Uiso       1.00
      C752          C  0.3372482  0.9307399  0.1736351    0.00000       Uiso       1.00
      C753          C  0.3573309  0.9286083  0.1912778    0.00000       Uiso       1.00
       O45          O  0.3797778  0.9276819  0.2484983    0.00000       Uiso       1.00
      H181          H  0.3408989  0.9230472  0.2233268    0.00000       Uiso       1.00
      H182          H  0.3079417  0.9222822  0.1906587    0.00000       Uiso       1.00
      H183          H  0.3353612  0.9357917  0.1613713    0.00000       Uiso       1.00
      C754          C  0.3940949  0.9310057  0.2296111    0.00000       Uiso       1.00
      C755          C  0.3945091  0.9315289  0.2112612    0.00000       Uiso       1.00
      C756          C  0.4124912  0.9339187  0.2120946    0.00000       Uiso       1.00
      C757          C  0.4129600  0.9335664  0.1933045    0.00000       Uiso       1.00
      C758          C  0.3960057  0.9295429  0.1728793    0.00000       Uiso       1.00
      C759          C  0.3782815  0.9266793  0.1723087    0.00000       Uiso       1.00
      C760          C  0.3763933  0.9292405  0.1914705    0.00000       Uiso       1.00
       O46          O  0.4105975  0.9326326  0.2500502    0.00000       Uiso       1.00
      H184          H  0.4261694  0.9361472  0.2274322    0.00000       Uiso       1.00
      H185          H  0.4268202  0.9362946  0.1950239    0.00000       Uiso       1.00
      H186          H  0.3664843  0.9211510  0.1566628    0.00000       Uiso       1.00
      C761          C  0.2415319  0.9309498  0.0954764    0.00000       Uiso       1.00
      C762          C  0.2598894  0.9314521  0.1147565    0.00000       Uiso       1.00
      C763          C  0.2590743  0.9337943  0.1342849    0.00000       Uiso       1.00
      C764          C  0.2778705  0.9334267  0.1531831    0.00000       Uiso       1.00
      C765          C  0.2982866  0.9294398  0.1526357    0.00000       Uiso       1.00
      C766          C  0.2988384  0.9266207  0.1326268    0.00000       Uiso       1.00
      C767          C  0.2796696  0.9291936  0.1141479    0.00000       Uiso       1.00
       O47          O  0.2210955  0.9325704  0.0931664    0.00000       Uiso       1.00
      H187          H  0.2437424  0.9360074  0.1348559    0.00000       Uiso       1.00
      H188          H  0.2761583  0.9361219  0.1680436    0.00000       Uiso       1.00
      H189          H  0.3144754  0.9211084  0.1309364    0.00000       Uiso       1.00
      C768          C  0.3756375  0.9310102  0.0770349    0.00000       Uiso       1.00
      C769          C  0.3563560  0.9315273  0.0766243    0.00000       Uiso       1.00
      C770          C  0.3368318  0.9338636  0.0586206    0.00000       Uiso       1.00
      C771          C  0.3179329  0.9334933  0.0581468    0.00000       Uiso       1.00
      C772          C  0.3184741  0.9295176  0.0751291    0.00000       Uiso       1.00
      C773          C  0.3384793  0.9267136  0.0928806    0.00000       Uiso       1.00
      C774          C  0.3569609  0.9292809  0.0947599    0.00000       Uiso       1.00
       O48          O  0.3779491  0.9326069  0.0605157    0.00000       Uiso       1.00
      H190          H  0.3362695  0.9360682  0.0449296    0.00000       Uiso       1.00
      H191          H  0.3030789  0.9361746  0.0442602    0.00000       Uiso       1.00
      H192          H  0.3401658  0.9212121  0.1047037    0.00000       Uiso       1.00
       B22          B  0.4011973  0.9305275  0.0698037    0.00000       Uiso       1.00
       B23          B  0.2092101  0.9305109  0.0699233    0.00000       Uiso       1.00
       B24          B  0.4013163  0.9305289  0.2619195    0.00000       Uiso       1.00
