data_93
_audit_creation_date              0000-00-00
_audit_creation_method            'LanYouShi'
_symmetry_space_group_name_H-M    'P1'
_cell_length_a                    66.9181976
_cell_length_b                    66.9181976
_cell_length_c                    66.9181976
_cell_angle_alpha                 120.0000000
_cell_angle_beta                  60.0000000
_cell_angle_gamma                 120.0000000
loop_
_atom_site_label
_atom_site_type_symbol
_atom_site_fract_x
_atom_site_fract_y
_atom_site_fract_z
_atom_site_U_iso_or_equiv
_atom_site_adp_type
_atom_site_occupancy
        C1          C  0.4555445  0.5941661  0.7362865    0.00000       Uiso       1.00
        C2          C  0.4573421  0.5707068  0.7235770    0.00000       Uiso       1.00
        C3          C  0.4612711  0.5599310  0.6980934    0.00000       Uiso       1.00
        C4          C  0.4573422  0.6067135  0.7235770    0.00000       Uiso       1.00
        C5          C  0.4611141  0.5959634  0.6981756    0.00000       Uiso       1.00
        C6          C  0.4633016  0.5723459  0.6847671    0.00000       Uiso       1.00
        C7          C  0.4017271  0.2596135  0.4017341    0.00000       Uiso       1.00
        C8          C  0.3891797  0.2723230  0.4251933    0.00000       Uiso       1.00
        C9          C  0.3999293  0.2977242  0.4360728    0.00000       Uiso       1.00
       C10          C  0.4251864  0.2723230  0.3891867    0.00000       Uiso       1.00
       C11          C  0.4359620  0.2978066  0.3999654    0.00000       Uiso       1.00
       C12          C  0.4235458  0.3111318  0.4236759    0.00000       Uiso       1.00
       C13          C  0.4017273  0.5403487  0.4017341    0.00000       Uiso       1.00
       C14          C  0.4251866  0.5385510  0.3891867    0.00000       Uiso       1.00
       C15          C  0.4360648  0.5347759  0.3999349    0.00000       Uiso       1.00
       C16          C  0.3891799  0.5385511  0.4251933    0.00000       Uiso       1.00
       C17          C  0.3999567  0.5346180  0.4359675    0.00000       Uiso       1.00
       C18          C  0.4236670  0.5325847  0.4235502    0.00000       Uiso       1.00
       C19          C  0.7362794  0.5941660  0.4555514    0.00000       Uiso       1.00
       C20          C  0.7235700  0.6067134  0.4573490    0.00000       Uiso       1.00
       C21          C  0.6980865  0.5959346  0.4612777    0.00000       Uiso       1.00
       C22          C  0.7235700  0.5707067  0.4573490    0.00000       Uiso       1.00
       C23          C  0.6981688  0.5598270  0.4611200    0.00000       Uiso       1.00
       C24          C  0.6847607  0.5722235  0.4633073    0.00000       Uiso       1.00
       C25          C  0.4988173  0.4970705  0.4988258    0.00000       Uiso       1.00
        F1          F  0.4553992  0.5569571  0.7367658    0.00000       Uiso       1.00
        F2          F  0.7367588  0.6317089  0.4554060    0.00000       Uiso       1.00
        F3          F  0.3641842  0.2591342  0.4389430    0.00000       Uiso       1.00
        F4          F  0.4389363  0.5404941  0.3641912    0.00000       Uiso       1.00
        F5          F  0.4553991  0.6317090  0.7367657    0.00000       Uiso       1.00
        F6          F  0.4389361  0.2591341  0.3641911    0.00000       Uiso       1.00
        F7          F  0.3641844  0.5404941  0.4389431    0.00000       Uiso       1.00
        F8          F  0.7367588  0.5569570  0.4554060    0.00000       Uiso       1.00
        F9          F  0.4638795  0.5352246  0.6852396    0.00000       Uiso       1.00
       F10          F  0.4623260  0.6099907  0.6857260    0.00000       Uiso       1.00
       F11          F  0.6857195  0.5345622  0.4623324    0.00000       Uiso       1.00
       F12          F  0.6852325  0.6103973  0.4638895    0.00000       Uiso       1.00
       F13          F  0.3859006  0.3101734  0.4613372    0.00000       Uiso       1.00
       F14          F  0.4606676  0.3106584  0.3855018    0.00000       Uiso       1.00
       F15          F  0.3854873  0.5320041  0.4606712    0.00000       Uiso       1.00
       F16          F  0.4613275  0.5335577  0.3859058    0.00000       Uiso       1.00
       C26          C  0.4677916  0.5609591  0.6572442    0.00000       Uiso       1.00
       C27          C  0.4584664  0.5353168  0.6458421    0.00000       Uiso       1.00
       C28          C  0.4627540  0.5247083  0.6202633    0.00000       Uiso       1.00
       C29          C  0.4815194  0.5756711  0.6420381    0.00000       Uiso       1.00
       C30          C  0.4857361  0.5653091  0.6164959    0.00000       Uiso       1.00
       C31          C  0.4763764  0.5397437  0.6055387    0.00000       Uiso       1.00
       C32          C  0.4349298  0.3386531  0.4353222    0.00000       Uiso       1.00
       C33          C  0.4202171  0.3538592  0.4515041    0.00000       Uiso       1.00
       C34          C  0.4305778  0.3794010  0.4624688    0.00000       Uiso       1.00
       C35          C  0.4605700  0.3500540  0.4304181    0.00000       Uiso       1.00
       C36          C  0.4711760  0.3756311  0.4411019    0.00000       Uiso       1.00
       C37          C  0.4561419  0.3903563  0.4572298    0.00000       Uiso       1.00
        H1          H  0.4723722  0.3390059  0.4184999    0.00000       Uiso       1.00
        H2          H  0.4006262  0.3459507  0.4553308    0.00000       Uiso       1.00
       C38          C  0.4353135  0.5280905  0.4349322    0.00000       Uiso       1.00
       C39          C  0.4515045  0.5143621  0.4202166    0.00000       Uiso       1.00
       C40          C  0.4624714  0.5101450  0.4305772    0.00000       Uiso       1.00
       C41          C  0.4304007  0.5374161  0.4605732    0.00000       Uiso       1.00
       C42          C  0.4410834  0.5331274  0.4711788    0.00000       Uiso       1.00
       C43          C  0.4572217  0.5195060  0.4561452    0.00000       Uiso       1.00
       C44          C  0.6572384  0.5605775  0.4677974    0.00000       Uiso       1.00
       C45          C  0.6458372  0.5654845  0.4584645    0.00000       Uiso       1.00
       C46          C  0.6202584  0.5548039  0.4627544    0.00000       Uiso       1.00
       C47          C  0.6420318  0.5443942  0.4815322    0.00000       Uiso       1.00
       C48          C  0.6164897  0.5334300  0.4857483    0.00000       Uiso       1.00
       C49          C  0.6055334  0.5386732  0.4763836    0.00000       Uiso       1.00
       C50          C  0.6090465  0.5600063  0.4536947    0.00000       Uiso       1.00
       C51          C  0.5836181  0.5496069  0.4583040    0.00000       Uiso       1.00
       C52          C  0.4966505  0.3868420  0.4359053    0.00000       Uiso       1.00
       C53          C  0.5070700  0.4122694  0.4463073    0.00000       Uiso       1.00
       F17          F  0.5341729  0.4233356  0.4400117    0.00000       Uiso       1.00
       F18          F  0.5130677  0.3718317  0.4189930    0.00000       Uiso       1.00
       F19          F  0.6240622  0.5769203  0.4391811    0.00000       Uiso       1.00
       F20          F  0.5725458  0.5559038  0.4485706    0.00000       Uiso       1.00
       F21          F  0.4567785  0.5035559  0.3932334    0.00000       Uiso       1.00
       F22          F  0.4139801  0.5524607  0.4768277    0.00000       Uiso       1.00
       F23          F  0.6610622  0.5818974  0.4434114    0.00000       Uiso       1.00
       F24          F  0.6529261  0.5391209  0.4923476    0.00000       Uiso       1.00
       F25          F  0.4923293  0.6026553  0.6529313    0.00000       Uiso       1.00
       F26          F  0.4434254  0.5190706  0.6610612    0.00000       Uiso       1.00
       C54          C  0.4808108  0.5291865  0.5797831    0.00000       Uiso       1.00
       C55          C  0.4718806  0.5036010  0.5687291    0.00000       Uiso       1.00
       C56          C  0.4769459  0.4931532  0.5430318    0.00000       Uiso       1.00
       C57          C  0.4944968  0.5442123  0.5650801    0.00000       Uiso       1.00
       C58          C  0.4991512  0.5335992  0.5395012    0.00000       Uiso       1.00
       C59          C  0.4904844  0.5078728  0.5277477    0.00000       Uiso       1.00
       C60          C  0.4666996  0.4161109  0.4679941    0.00000       Uiso       1.00
       C61          C  0.4516740  0.4308158  0.4840299    0.00000       Uiso       1.00
       C62          C  0.4622870  0.4563956  0.4943430    0.00000       Uiso       1.00
       C63          C  0.4922856  0.4271642  0.4624027    0.00000       Uiso       1.00
       C64          C  0.5027333  0.4528624  0.4725859    0.00000       Uiso       1.00
       C65          C  0.4880140  0.4681482  0.4890409    0.00000       Uiso       1.00
       C66          C  0.4679839  0.5150758  0.4667063    0.00000       Uiso       1.00
       C67          C  0.4840299  0.5013918  0.4516800    0.00000       Uiso       1.00
       C68          C  0.4943413  0.4967389  0.4622951    0.00000       Uiso       1.00
       C69          C  0.4623801  0.5240068  0.4922941    0.00000       Uiso       1.00
       C70          C  0.4725617  0.5189395  0.5027435    0.00000       Uiso       1.00
       C71          C  0.4890297  0.5054028  0.4880233    0.00000       Uiso       1.00
       C72          C  0.5797781  0.5279093  0.4808180    0.00000       Uiso       1.00
       C73          C  0.5687233  0.5335071  0.4718835    0.00000       Uiso       1.00
       C74          C  0.5430237  0.5233231  0.4769517    0.00000       Uiso       1.00
       C75          C  0.5650747  0.5118660  0.4945051    0.00000       Uiso       1.00
       C76          C  0.5394951  0.5015506  0.4991572    0.00000       Uiso       1.00
       C77          C  0.5277401  0.5068586  0.4904926    0.00000       Uiso       1.00
       C78          C  0.4462743  0.5375798  0.5070783    0.00000       Uiso       1.00
       C79          C  0.4358747  0.5421860  0.4966562    0.00000       Uiso       1.00
       C80          C  0.4891969  0.4922422  0.4262128    0.00000       Uiso       1.00
       C81          C  0.4785330  0.4965336  0.4158040    0.00000       Uiso       1.00
       C82          C  0.4583075  0.4888150  0.5836225    0.00000       Uiso       1.00
       C83          C  0.4537000  0.4992333  0.6090512    0.00000       Uiso       1.00
       C84          C  0.5036446  0.5696806  0.5762320    0.00000       Uiso       1.00
       C85          C  0.4993474  0.5800869  0.6015993    0.00000       Uiso       1.00
       C86          C  0.5762268  0.5067013  0.5036557    0.00000       Uiso       1.00
       C87          C  0.6015923  0.5173692  0.4993622    0.00000       Uiso       1.00
       C88          C  0.4262066  0.4196650  0.4891883    0.00000       Uiso       1.00
       C89          C  0.4158009  0.3942991  0.4785235    0.00000       Uiso       1.00
       F27          F  0.4844265  0.4863396  0.3887406    0.00000       Uiso       1.00
       F28          F  0.5059841  0.4775916  0.4098114    0.00000       Uiso       1.00
       F29          F  0.4399664  0.5473078  0.5341823    0.00000       Uiso       1.00
       F30          F  0.4189510  0.5566889  0.5130718    0.00000       Uiso       1.00
       F31          F  0.5182953  0.5860857  0.5611994    0.00000       Uiso       1.00
       F32          F  0.5095345  0.6071500  0.6125834    0.00000       Uiso       1.00
       F33          F  0.4485795  0.4617110  0.5725545    0.00000       Uiso       1.00
       F34          F  0.4391975  0.4828234  0.6240681    0.00000       Uiso       1.00
       F35          F  0.3887387  0.3833218  0.4844071    0.00000       Uiso       1.00
       F36          F  0.4098062  0.4347031  0.5059651    0.00000       Uiso       1.00
       F37          F  0.6125717  0.5114788  0.5095553    0.00000       Uiso       1.00
       F38          F  0.5611906  0.4899115  0.5183036    0.00000       Uiso       1.00
       F39          F  0.5107399  0.4816705  0.4460660    0.00000       Uiso       1.00
       F40          F  0.4647103  0.5274208  0.5299439    0.00000       Uiso       1.00
       F41          F  0.5242649  0.4851486  0.5142218    0.00000       Uiso       1.00
       F42          F  0.5321504  0.5311530  0.4684553    0.00000       Uiso       1.00
       F43          F  0.4460544  0.4716309  0.5107188    0.00000       Uiso       1.00
       F44          F  0.5299334  0.4637303  0.4647525    0.00000       Uiso       1.00
       F45          F  0.5142324  0.5498335  0.5242681    0.00000       Uiso       1.00
       F46          F  0.4684594  0.4659530  0.5321625    0.00000       Uiso       1.00
       C90          C  0.8135255  0.9521469  0.7362864    0.00000       Uiso       1.00
       C91          C  0.8009781  0.9503493  0.7235769    0.00000       Uiso       1.00
       C92          C  0.8117568  0.9464203  0.6980933    0.00000       Uiso       1.00
       C93          C  0.8369848  0.9503493  0.7235769    0.00000       Uiso       1.00
       C94          C  0.8478640  0.9465774  0.6981755    0.00000       Uiso       1.00
       C95          C  0.8354676  0.9443899  0.6847670    0.00000       Uiso       1.00
       C96          C  0.8673428  0.0059640  0.4017339    0.00000       Uiso       1.00
       C97          C  0.8691404  0.0185114  0.4251932    0.00000       Uiso       1.00
       C98          C  0.8729125  0.0077618  0.4360727    0.00000       Uiso       1.00
       C99          C  0.8691404  0.9825050  0.3891865    0.00000       Uiso       1.00
      C100          C  0.8730696  0.9717294  0.3999653    0.00000       Uiso       1.00
      C101          C  0.8751006  0.9841457  0.4236758    0.00000       Uiso       1.00
      C102          C  0.1480774  0.0059638  0.4017341    0.00000       Uiso       1.00
      C103          C  0.1353679  0.9825049  0.3891867    0.00000       Uiso       1.00
      C104          C  0.1099663  0.9716266  0.3999349    0.00000       Uiso       1.00
      C105          C  0.1353679  0.0185112  0.4251933    0.00000       Uiso       1.00
      C106          C  0.1098839  0.0077344  0.4359674    0.00000       Uiso       1.00
      C107          C  0.0965575  0.9840244  0.4235502    0.00000       Uiso       1.00
      C108          C  0.8135255  0.6714119  0.4555514    0.00000       Uiso       1.00
      C109          C  0.8369848  0.6841214  0.4573490    0.00000       Uiso       1.00
      C110          C  0.8477607  0.7096049  0.4612777    0.00000       Uiso       1.00
      C111          C  0.8009781  0.6841214  0.4573490    0.00000       Uiso       1.00
      C112          C  0.8117285  0.7095225  0.4611200    0.00000       Uiso       1.00
      C113          C  0.8353458  0.7229307  0.4633073    0.00000       Uiso       1.00
      C114          C  0.9106178  0.9088742  0.4988258    0.00000       Uiso       1.00
       F47          F  0.7759826  0.9522924  0.7367657    0.00000       Uiso       1.00
       F48          F  0.8507344  0.6709327  0.4554060    0.00000       Uiso       1.00
       F49          F  0.8671975  0.0435069  0.4389429    0.00000       Uiso       1.00
       F50          F  0.1485567  0.9687551  0.3641912    0.00000       Uiso       1.00
       F51          F  0.8507344  0.9522924  0.7367657    0.00000       Uiso       1.00
       F52          F  0.8671973  0.9687552  0.3641910    0.00000       Uiso       1.00
       F53          F  0.1485567  0.0435067  0.4389431    0.00000       Uiso       1.00
       F54          F  0.7759826  0.6709326  0.4554060    0.00000       Uiso       1.00
       F55          F  0.7972959  0.9438120  0.6852395    0.00000       Uiso       1.00
       F56          F  0.8731290  0.9453654  0.6857260    0.00000       Uiso       1.00
       F57          F  0.7977006  0.7219719  0.4623324    0.00000       Uiso       1.00
       F58          F  0.8724656  0.7224589  0.4638895    0.00000       Uiso       1.00
       F59          F  0.8741260  0.0217905  0.4613371    0.00000       Uiso       1.00
       F60          F  0.8756794  0.9470237  0.3855017    0.00000       Uiso       1.00
       F61          F  0.0970356  0.0222038  0.4606712    0.00000       Uiso       1.00
       F62          F  0.0975146  0.9463640  0.3859058    0.00000       Uiso       1.00
      C115          C  0.8471137  0.9398999  0.6572442    0.00000       Uiso       1.00
      C116          C  0.8421987  0.9492250  0.6458421    0.00000       Uiso       1.00
      C117          C  0.8528813  0.9449373  0.6202633    0.00000       Uiso       1.00
      C118          C  0.8633040  0.9261721  0.6420381    0.00000       Uiso       1.00
      C119          C  0.8742675  0.9219553  0.6164958    0.00000       Uiso       1.00
      C120          C  0.8690190  0.9313151  0.6055386    0.00000       Uiso       1.00
      C121          C  0.8795915  0.9727616  0.4353221    0.00000       Uiso       1.00
      C122          C  0.8933284  0.9874743  0.4515040    0.00000       Uiso       1.00
      C123          C  0.8975449  0.9771136  0.4624687    0.00000       Uiso       1.00
      C124          C  0.8702562  0.9471214  0.4304180    0.00000       Uiso       1.00
      C125          C  0.8745437  0.9365155  0.4411018    0.00000       Uiso       1.00
      C126          C  0.8881751  0.9515495  0.4572297    0.00000       Uiso       1.00
        H3          H  0.8593242  0.9353192  0.4184998    0.00000       Uiso       1.00
        H4          H  0.9011841  0.0070649  0.4553306    0.00000       Uiso       1.00
      C127          C  0.0690349  0.9723779  0.4349322    0.00000       Uiso       1.00
      C128          C  0.0538312  0.9561870  0.4202165    0.00000       Uiso       1.00
      C129          C  0.0282865  0.9452201  0.4305772    0.00000       Uiso       1.00
      C130          C  0.0576323  0.9772907  0.4605732    0.00000       Uiso       1.00
      C131          C  0.0320553  0.9666080  0.4711788    0.00000       Uiso       1.00
      C132          C  0.0173292  0.9504697  0.4561452    0.00000       Uiso       1.00
      C133          C  0.8467321  0.7504531  0.4677974    0.00000       Uiso       1.00
      C134          C  0.8723732  0.7618542  0.4584644    0.00000       Uiso       1.00
      C135          C  0.8829815  0.7874330  0.4627544    0.00000       Uiso       1.00
      C136          C  0.8320205  0.7656596  0.4815322    0.00000       Uiso       1.00
      C137          C  0.8423824  0.7912017  0.4857482    0.00000       Uiso       1.00
      C138          C  0.8679466  0.8021581  0.4763835    0.00000       Uiso       1.00
      C139          C  0.9084554  0.7986449  0.4536947    0.00000       Uiso       1.00
      C140          C  0.9188751  0.8240734  0.4583040    0.00000       Uiso       1.00
      C141          C  0.8654766  0.9110409  0.4359053    0.00000       Uiso       1.00
      C142          C  0.8700824  0.9006214  0.4463072    0.00000       Uiso       1.00
       F63          F  0.8603414  0.8735185  0.4400117    0.00000       Uiso       1.00
       F64          F  0.8509616  0.8946238  0.4189929    0.00000       Uiso       1.00
       F65          F  0.9248674  0.7836293  0.4391811    0.00000       Uiso       1.00
       F66          F  0.9459779  0.8351456  0.4485705    0.00000       Uiso       1.00
       F67          F  0.0647340  0.9509129  0.3932334    0.00000       Uiso       1.00
       F68          F  0.0728429  0.9937113  0.4768277    0.00000       Uiso       1.00
       F69          F  0.8886142  0.7466292  0.4434114    0.00000       Uiso       1.00
       F70          F  0.8050376  0.7547653  0.4923476    0.00000       Uiso       1.00
       F71          F  0.8685851  0.9153622  0.6529313    0.00000       Uiso       1.00
       F72          F  0.8257744  0.9642661  0.6610611    0.00000       Uiso       1.00
      C143          C  0.8797830  0.9268807  0.5797831    0.00000       Uiso       1.00
      C144          C  0.8741817  0.9358109  0.5687290    0.00000       Uiso       1.00
      C145          C  0.8843659  0.9307455  0.5430317    0.00000       Uiso       1.00
      C146          C  0.8958258  0.9131946  0.5650801    0.00000       Uiso       1.00
      C147          C  0.9061372  0.9085402  0.5395012    0.00000       Uiso       1.00
      C148          C  0.9008312  0.9172071  0.5277476    0.00000       Uiso       1.00
      C149          C  0.8926076  0.9409918  0.4679940    0.00000       Uiso       1.00
      C150          C  0.9063023  0.9560174  0.4840298    0.00000       Uiso       1.00
      C151          C  0.9109559  0.9454044  0.4943430    0.00000       Uiso       1.00
      C152          C  0.8836663  0.9154058  0.4624026    0.00000       Uiso       1.00
      C153          C  0.8887337  0.9049581  0.4725858    0.00000       Uiso       1.00
      C154          C  0.9022838  0.9196775  0.4890408    0.00000       Uiso       1.00
      C155          C  0.9915760  0.9397075  0.4667062    0.00000       Uiso       1.00
      C156          C  0.9768723  0.9236615  0.4516800    0.00000       Uiso       1.00
      C157          C  0.9512928  0.9133501  0.4622950    0.00000       Uiso       1.00
      C158          C  0.9805229  0.9453113  0.4922940    0.00000       Uiso       1.00
      C159          C  0.9548247  0.9351298  0.5027434    0.00000       Uiso       1.00
      C160          C  0.9395401  0.9186617  0.4880233    0.00000       Uiso       1.00
      C161          C  0.8785037  0.8279133  0.4808179    0.00000       Uiso       1.00
      C162          C  0.9040908  0.8389681  0.4718834    0.00000       Uiso       1.00
      C163          C  0.9145380  0.8646677  0.4769517    0.00000       Uiso       1.00
      C164          C  0.8634766  0.8426167  0.4945050    0.00000       Uiso       1.00
      C165          C  0.8740888  0.8681964  0.4991572    0.00000       Uiso       1.00
      C166          C  0.8998163  0.8799513  0.4904926    0.00000       Uiso       1.00
      C167          C  0.9954176  0.9614172  0.5070783    0.00000       Uiso       1.00
      C168          C  0.0208452  0.9718168  0.4966561    0.00000       Uiso       1.00
      C169          C  0.9880230  0.9184946  0.4262127    0.00000       Uiso       1.00
      C170          C  0.0133867  0.9291584  0.4158039    0.00000       Uiso       1.00
      C171          C  0.8580753  0.9493839  0.5836225    0.00000       Uiso       1.00
      C172          C  0.8476726  0.9539915  0.6090511    0.00000       Uiso       1.00
      C173          C  0.9009944  0.9040468  0.5762319    0.00000       Uiso       1.00
      C174          C  0.8903306  0.9083440  0.6015992    0.00000       Uiso       1.00
      C175          C  0.8380091  0.8314646  0.5036557    0.00000       Uiso       1.00
      C176          C  0.8276052  0.8060992  0.4993621    0.00000       Uiso       1.00
      C177          C  0.9154605  0.9814848  0.4891882    0.00000       Uiso       1.00
      C178          C  0.9111651  0.9918905  0.4785234    0.00000       Uiso       1.00
       F73          F  0.0243627  0.9232649  0.3887405    0.00000       Uiso       1.00
       F74          F  0.9729865  0.9017073  0.4098114    0.00000       Uiso       1.00
       F75          F  0.9843495  0.9677250  0.5341822    0.00000       Uiso       1.00
       F76          F  0.0358563  0.9887404  0.5130717    0.00000       Uiso       1.00
       F77          F  0.9177814  0.8893963  0.5611994    0.00000       Uiso       1.00
       F78          F  0.8962224  0.8981569  0.6125834    0.00000       Uiso       1.00
       F79          F  0.8517675  0.9591120  0.5725544    0.00000       Uiso       1.00
       F80          F  0.8307481  0.9684939  0.6240680    0.00000       Uiso       1.00
       F81          F  0.9213663  0.0189524  0.4844070    0.00000       Uiso       1.00
       F82          F  0.9301223  0.9978852  0.5059650    0.00000       Uiso       1.00
       F83          F  0.8005422  0.7951197  0.5095552    0.00000       Uiso       1.00
       F84          F  0.8216077  0.8465008  0.5183035    0.00000       Uiso       1.00
       F85          F  0.9360549  0.8969514  0.4460660    0.00000       Uiso       1.00
       F86          F  0.9439570  0.9429812  0.5299438    0.00000       Uiso       1.00
       F87          F  0.8578523  0.8834265  0.5142217    0.00000       Uiso       1.00
       F88          F  0.9417377  0.8755410  0.4684553    0.00000       Uiso       1.00
       F89          F  0.9260480  0.9616370  0.5107187    0.00000       Uiso       1.00
       F90          F  0.8802348  0.8777580  0.4647524    0.00000       Uiso       1.00
       F91          F  0.9225234  0.8934590  0.5242681    0.00000       Uiso       1.00
       F92          F  0.8765215  0.9392319  0.5321624    0.00000       Uiso       1.00
      C179          C  0.8135254  0.5941660  0.7362865    0.00000       Uiso       1.00
      C180          C  0.8369847  0.6067135  0.7235770    0.00000       Uiso       1.00
      C181          C  0.8477605  0.5959347  0.6980935    0.00000       Uiso       1.00
      C182          C  0.8009780  0.5707068  0.7235770    0.00000       Uiso       1.00
      C183          C  0.8117281  0.5598275  0.6981756    0.00000       Uiso       1.00
      C184          C  0.8353456  0.5722239  0.6847671    0.00000       Uiso       1.00
      C185          C  0.1480776  0.5403487  0.4017341    0.00000       Uiso       1.00
      C186          C  0.1353681  0.5385511  0.4251933    0.00000       Uiso       1.00
      C187          C  0.1099669  0.5347790  0.4360728    0.00000       Uiso       1.00
      C188          C  0.1353682  0.5385511  0.3891867    0.00000       Uiso       1.00
      C189          C  0.1098845  0.5346219  0.3999655    0.00000       Uiso       1.00
      C190          C  0.0965593  0.5325909  0.4236760    0.00000       Uiso       1.00
      C191          C  0.8673427  0.2596138  0.4017342    0.00000       Uiso       1.00
      C192          C  0.8691403  0.2723233  0.3891868    0.00000       Uiso       1.00
      C193          C  0.8729155  0.2977249  0.3999350    0.00000       Uiso       1.00
      C194          C  0.8691403  0.2723233  0.4251935    0.00000       Uiso       1.00
      C195          C  0.8730735  0.2978073  0.4359676    0.00000       Uiso       1.00
      C196          C  0.8751068  0.3111337  0.4235503    0.00000       Uiso       1.00
      C197          C  0.8135254  0.5941660  0.4555514    0.00000       Uiso       1.00
      C198          C  0.8009781  0.5707067  0.4573490    0.00000       Uiso       1.00
      C199          C  0.8117568  0.5599307  0.4612777    0.00000       Uiso       1.00
      C200          C  0.8369848  0.6067134  0.4573490    0.00000       Uiso       1.00
      C201          C  0.8478644  0.5959629  0.4611200    0.00000       Uiso       1.00
      C202          C  0.8354679  0.5723457  0.4633073    0.00000       Uiso       1.00
      C203          C  0.9106209  0.4970737  0.4988259    0.00000       Uiso       1.00
       F93          F  0.8507344  0.6317089  0.7367658    0.00000       Uiso       1.00
       F94          F  0.7759826  0.5569570  0.4554060    0.00000       Uiso       1.00
       F95          F  0.1485569  0.5404941  0.4389431    0.00000       Uiso       1.00
       F96          F  0.8671973  0.2591345  0.3641913    0.00000       Uiso       1.00
       F97          F  0.7759825  0.5569571  0.7367658    0.00000       Uiso       1.00
       F98          F  0.1485570  0.5404941  0.3641912    0.00000       Uiso       1.00
       F99          F  0.8671973  0.2591345  0.4389432    0.00000       Uiso       1.00
      F100          F  0.8507345  0.6317089  0.4554060    0.00000       Uiso       1.00
      F101          F  0.8724669  0.6103957  0.6852396    0.00000       Uiso       1.00
      F102          F  0.7977008  0.5345625  0.6857261    0.00000       Uiso       1.00
      F103          F  0.8731292  0.6099908  0.4623324    0.00000       Uiso       1.00
      F104          F  0.7972941  0.5352258  0.4638896    0.00000       Uiso       1.00
      F105          F  0.0975177  0.5335655  0.4613373    0.00000       Uiso       1.00
      F106          F  0.0970327  0.5320120  0.3855018    0.00000       Uiso       1.00
      F107          F  0.8756873  0.3106556  0.4606714    0.00000       Uiso       1.00
      F108          F  0.8741337  0.3101766  0.3859059    0.00000       Uiso       1.00
      C204          C  0.8467324  0.5605778  0.6572443    0.00000       Uiso       1.00
      C205          C  0.8723747  0.5654929  0.6458422    0.00000       Uiso       1.00
      C206          C  0.8829831  0.5548102  0.6202633    0.00000       Uiso       1.00
      C207          C  0.8320203  0.5443876  0.6420382    0.00000       Uiso       1.00
      C208          C  0.8423824  0.5334240  0.6164959    0.00000       Uiso       1.00
      C209          C  0.8679478  0.5386725  0.6055387    0.00000       Uiso       1.00
      C210          C  0.0690381  0.5281000  0.4353223    0.00000       Uiso       1.00
      C211          C  0.0538320  0.5143631  0.4515041    0.00000       Uiso       1.00
      C212          C  0.0282901  0.5101466  0.4624689    0.00000       Uiso       1.00
      C213          C  0.0576372  0.5374352  0.4304181    0.00000       Uiso       1.00
      C214          C  0.0320601  0.5331478  0.4411019    0.00000       Uiso       1.00
      C215          C  0.0173348  0.5195164  0.4572299    0.00000       Uiso       1.00
        H5          H  0.0686852  0.5483673  0.4184999    0.00000       Uiso       1.00
        H6          H  0.0617405  0.5065073  0.4553308    0.00000       Uiso       1.00
      C216          C  0.8796009  0.3386563  0.4349323    0.00000       Uiso       1.00
      C217          C  0.8933293  0.3538600  0.4202166    0.00000       Uiso       1.00
      C218          C  0.8975465  0.3794047  0.4305773    0.00000       Uiso       1.00
      C219          C  0.8702753  0.3500589  0.4605733    0.00000       Uiso       1.00
      C220          C  0.8745641  0.3756360  0.4711789    0.00000       Uiso       1.00
      C221          C  0.8881854  0.3903620  0.4561453    0.00000       Uiso       1.00
      C222          C  0.8471140  0.5609594  0.4677975    0.00000       Uiso       1.00
      C223          C  0.8422070  0.5353184  0.4584645    0.00000       Uiso       1.00
      C224          C  0.8528875  0.5247099  0.4627544    0.00000       Uiso       1.00
      C225          C  0.8632973  0.5756710  0.4815322    0.00000       Uiso       1.00
      C226          C  0.8742614  0.5653090  0.4857483    0.00000       Uiso       1.00
      C227          C  0.8690182  0.5397449  0.4763836    0.00000       Uiso       1.00
      C228          C  0.8476852  0.4992360  0.4536947    0.00000       Uiso       1.00
      C229          C  0.8580846  0.4888164  0.4583041    0.00000       Uiso       1.00
      C230          C  0.0208491  0.5422149  0.4359054    0.00000       Uiso       1.00
      C231          C  0.9954220  0.5376090  0.4463074    0.00000       Uiso       1.00
      F109          F  0.9843558  0.5473501  0.4400117    0.00000       Uiso       1.00
      F110          F  0.0358594  0.5567300  0.4189930    0.00000       Uiso       1.00
      F111          F  0.8307711  0.4828241  0.4391812    0.00000       Uiso       1.00
      F112          F  0.8517876  0.4617136  0.4485706    0.00000       Uiso       1.00
      F113          F  0.9041355  0.3429572  0.3932336    0.00000       Uiso       1.00
      F114          F  0.8552307  0.3348482  0.4768278    0.00000       Uiso       1.00
      F115          F  0.8257940  0.5190774  0.4434115    0.00000       Uiso       1.00
      F116          F  0.8685706  0.6026539  0.4923476    0.00000       Uiso       1.00
      F117          F  0.8050362  0.5391065  0.6529314    0.00000       Uiso       1.00
      F118          F  0.8886209  0.5819172  0.6610612    0.00000       Uiso       1.00
      C232          C  0.8785049  0.5279085  0.5797831    0.00000       Uiso       1.00
      C233          C  0.9040904  0.5335097  0.5687292    0.00000       Uiso       1.00
      C234          C  0.9145383  0.5233256  0.5430318    0.00000       Uiso       1.00
      C235          C  0.8634791  0.5118657  0.5650802    0.00000       Uiso       1.00
      C236          C  0.8740922  0.5015543  0.5395012    0.00000       Uiso       1.00
      C237          C  0.8998187  0.5068604  0.5277478    0.00000       Uiso       1.00
      C238          C  0.9915806  0.5150839  0.4679941    0.00000       Uiso       1.00
      C239          C  0.9768757  0.5013892  0.4840299    0.00000       Uiso       1.00
      C240          C  0.9512959  0.4967356  0.4943430    0.00000       Uiso       1.00
      C241          C  0.9805272  0.5240251  0.4624027    0.00000       Uiso       1.00
      C242          C  0.9548290  0.5189578  0.4725859    0.00000       Uiso       1.00
      C243          C  0.9395432  0.5054077  0.4890410    0.00000       Uiso       1.00
      C244          C  0.8926156  0.4161155  0.4667064    0.00000       Uiso       1.00
      C245          C  0.9062997  0.4308192  0.4516801    0.00000       Uiso       1.00
      C246          C  0.9109526  0.4563986  0.4622951    0.00000       Uiso       1.00
      C247          C  0.8836846  0.4271685  0.4922942    0.00000       Uiso       1.00
      C248          C  0.8887519  0.4528668  0.5027435    0.00000       Uiso       1.00
      C249          C  0.9022886  0.4681513  0.4880234    0.00000       Uiso       1.00
      C250          C  0.8797821  0.5291879  0.4808180    0.00000       Uiso       1.00
      C251          C  0.8741843  0.5036007  0.4718835    0.00000       Uiso       1.00
      C252          C  0.8843683  0.4931534  0.4769518    0.00000       Uiso       1.00
      C253          C  0.8958255  0.5442150  0.4945051    0.00000       Uiso       1.00
      C254          C  0.9061408  0.5336028  0.4991572    0.00000       Uiso       1.00
      C255          C  0.9008328  0.5078752  0.4904927    0.00000       Uiso       1.00
      C256          C  0.8701116  0.4122739  0.5070784    0.00000       Uiso       1.00
      C257          C  0.8655055  0.3868460  0.4966563    0.00000       Uiso       1.00
      C258          C  0.9154492  0.4196686  0.4262128    0.00000       Uiso       1.00
      C259          C  0.9111578  0.3943045  0.4158041    0.00000       Uiso       1.00
      C260          C  0.9188765  0.5496162  0.5836225    0.00000       Uiso       1.00
      C261          C  0.9084581  0.5600190  0.6090512    0.00000       Uiso       1.00
      C262          C  0.8380108  0.5066971  0.5762320    0.00000       Uiso       1.00
      C263          C  0.8276045  0.5173609  0.6015993    0.00000       Uiso       1.00
      C264          C  0.9009902  0.5696824  0.5036558    0.00000       Uiso       1.00
      C265          C  0.8903223  0.5800864  0.4993622    0.00000       Uiso       1.00
      C266          C  0.9880264  0.4922310  0.4891883    0.00000       Uiso       1.00
      C267          C  0.0133921  0.4965265  0.4785236    0.00000       Uiso       1.00
      F119          F  0.9213517  0.3833285  0.3887407    0.00000       Uiso       1.00
      F120          F  0.9300998  0.4347049  0.4098115    0.00000       Uiso       1.00
      F121          F  0.8603837  0.4233420  0.5341823    0.00000       Uiso       1.00
      F122          F  0.8510025  0.3718349  0.5130718    0.00000       Uiso       1.00
      F123          F  0.8216057  0.4899101  0.5611994    0.00000       Uiso       1.00
      F124          F  0.8005415  0.5114691  0.6125835    0.00000       Uiso       1.00
      F125          F  0.9459804  0.5559241  0.5725545    0.00000       Uiso       1.00
      F126          F  0.9248681  0.5769433  0.6240681    0.00000       Uiso       1.00
      F127          F  0.0243694  0.4863251  0.4844072    0.00000       Uiso       1.00
      F128          F  0.9729882  0.4775692  0.5059652    0.00000       Uiso       1.00
      F129          F  0.8962126  0.6071493  0.5095553    0.00000       Uiso       1.00
      F130          F  0.9177799  0.5860838  0.5183036    0.00000       Uiso       1.00
      F131          F  0.9260210  0.4716366  0.4460661    0.00000       Uiso       1.00
      F132          F  0.8802706  0.4637345  0.5299440    0.00000       Uiso       1.00
      F133          F  0.9225428  0.5498392  0.5142218    0.00000       Uiso       1.00
      F134          F  0.8765385  0.4659537  0.4684553    0.00000       Uiso       1.00
      F135          F  0.9360606  0.4816435  0.5107188    0.00000       Uiso       1.00
      F136          F  0.9439612  0.5274567  0.4647525    0.00000       Uiso       1.00
      F137          F  0.8578579  0.4851681  0.5242682    0.00000       Uiso       1.00
      F138          F  0.9417384  0.5311700  0.5321625    0.00000       Uiso       1.00
      C268          C  0.7362795  0.5941661  0.8135325    0.00000       Uiso       1.00
      C269          C  0.7235700  0.5707068  0.8009850    0.00000       Uiso       1.00
      C270          C  0.6980864  0.5599310  0.8117638    0.00000       Uiso       1.00
      C271          C  0.7235700  0.6067135  0.8369917    0.00000       Uiso       1.00
      C272          C  0.6981687  0.5959634  0.8478710    0.00000       Uiso       1.00
      C273          C  0.6847602  0.5723460  0.8354746    0.00000       Uiso       1.00
      C274          C  0.4017271  0.2596136  0.8673497    0.00000       Uiso       1.00
      C275          C  0.4251863  0.2723231  0.8691474    0.00000       Uiso       1.00
      C276          C  0.4360658  0.2977243  0.8729195    0.00000       Uiso       1.00
      C277          C  0.3891796  0.2723231  0.8691474    0.00000       Uiso       1.00
      C278          C  0.3999585  0.2978067  0.8730766    0.00000       Uiso       1.00
      C279          C  0.4236690  0.3111320  0.8751076    0.00000       Uiso       1.00
      C280          C  0.4017273  0.5403486  0.1480843    0.00000       Uiso       1.00
      C281          C  0.3891799  0.5385510  0.1353749    0.00000       Uiso       1.00
      C282          C  0.3999281  0.5347759  0.1099733    0.00000       Uiso       1.00
      C283          C  0.4251866  0.5385510  0.1353749    0.00000       Uiso       1.00
      C284          C  0.4359607  0.5346179  0.1098909    0.00000       Uiso       1.00
      C285          C  0.4235434  0.5325846  0.0965645    0.00000       Uiso       1.00
      C286          C  0.4555445  0.5941661  0.8135325    0.00000       Uiso       1.00
      C287          C  0.4573422  0.6067135  0.8369917    0.00000       Uiso       1.00
      C288          C  0.4612707  0.5959347  0.8477677    0.00000       Uiso       1.00
      C289          C  0.4573421  0.5707068  0.8009850    0.00000       Uiso       1.00
      C290          C  0.4611132  0.5598271  0.8117355    0.00000       Uiso       1.00
      C291          C  0.4633004  0.5722236  0.8353528    0.00000       Uiso       1.00
      C292          C  0.4988189  0.4970706  0.9106247    0.00000       Uiso       1.00
      F139          F  0.7367589  0.5569572  0.7759895    0.00000       Uiso       1.00
      F140          F  0.4553991  0.6317090  0.8507414    0.00000       Uiso       1.00
      F141          F  0.4389360  0.2591343  0.8672044    0.00000       Uiso       1.00
      F142          F  0.3641844  0.5404941  0.1485637    0.00000       Uiso       1.00
      F143          F  0.7367589  0.6317090  0.8507414    0.00000       Uiso       1.00
      F144          F  0.3641841  0.2591343  0.8672044    0.00000       Uiso       1.00
      F145          F  0.4389363  0.5404940  0.1485637    0.00000       Uiso       1.00
      F146          F  0.4553991  0.5569571  0.7759895    0.00000       Uiso       1.00
      F147          F  0.6852326  0.5352247  0.7973028    0.00000       Uiso       1.00
      F148          F  0.6857191  0.6099908  0.8731360    0.00000       Uiso       1.00
      F149          F  0.4623255  0.5345623  0.7977076    0.00000       Uiso       1.00
      F150          F  0.4638827  0.6103974  0.8724726    0.00000       Uiso       1.00
      F151          F  0.4613302  0.3101735  0.8741329    0.00000       Uiso       1.00
      F152          F  0.3854948  0.3106586  0.8756865    0.00000       Uiso       1.00
      F153          F  0.4606645  0.5320041  0.0970426    0.00000       Uiso       1.00
      F154          F  0.3858990  0.5335577  0.0975215    0.00000       Uiso       1.00
      C293          C  0.6572373  0.5609592  0.8471206    0.00000       Uiso       1.00
      C294          C  0.6458352  0.5353169  0.8422056    0.00000       Uiso       1.00
      C295          C  0.6202564  0.5247084  0.8528882    0.00000       Uiso       1.00
      C296          C  0.6420313  0.5756712  0.8633109    0.00000       Uiso       1.00
      C297          C  0.6164889  0.5653092  0.8742745    0.00000       Uiso       1.00
      C298          C  0.6055318  0.5397437  0.8690259    0.00000       Uiso       1.00
      C299          C  0.4353153  0.3386531  0.8795984    0.00000       Uiso       1.00
      C300          C  0.4514971  0.3538593  0.8933354    0.00000       Uiso       1.00
      C301          C  0.4624619  0.3794011  0.8975518    0.00000       Uiso       1.00
      C302          C  0.4304112  0.3500541  0.8702633    0.00000       Uiso       1.00
      C303          C  0.4410949  0.3756312  0.8745506    0.00000       Uiso       1.00
      C304          C  0.4572229  0.3903564  0.8881820    0.00000       Uiso       1.00
        H7          H  0.4184929  0.3390060  0.8593312    0.00000       Uiso       1.00
        H8          H  0.4553238  0.3459508  0.9011912    0.00000       Uiso       1.00
      C305          C  0.4349254  0.5280904  0.0690419    0.00000       Uiso       1.00
      C306          C  0.4202098  0.5143620  0.0538381    0.00000       Uiso       1.00
      C307          C  0.4305704  0.5101449  0.0282934    0.00000       Uiso       1.00
      C308          C  0.4605664  0.5374160  0.0576392    0.00000       Uiso       1.00
      C309          C  0.4711720  0.5331272  0.0320622    0.00000       Uiso       1.00
      C310          C  0.4561384  0.5195059  0.0173362    0.00000       Uiso       1.00
      C311          C  0.4677905  0.5605776  0.8467391    0.00000       Uiso       1.00
      C312          C  0.4584576  0.5654845  0.8723801    0.00000       Uiso       1.00
      C313          C  0.4627475  0.5548040  0.8829885    0.00000       Uiso       1.00
      C314          C  0.4815253  0.5443943  0.8320275    0.00000       Uiso       1.00
      C315          C  0.4857413  0.5334301  0.8423893    0.00000       Uiso       1.00
      C316          C  0.4763766  0.5386733  0.8679536    0.00000       Uiso       1.00
      C317          C  0.4536878  0.5600064  0.9084623    0.00000       Uiso       1.00
      C318          C  0.4582972  0.5496070  0.9188821    0.00000       Uiso       1.00
      C319          C  0.4358984  0.3868422  0.8654836    0.00000       Uiso       1.00
      C320          C  0.4463004  0.4122695  0.8700894    0.00000       Uiso       1.00
      F155          F  0.4400048  0.4233357  0.8603483    0.00000       Uiso       1.00
      F156          F  0.4189861  0.3718319  0.8509685    0.00000       Uiso       1.00
      F157          F  0.4391743  0.5769204  0.9248744    0.00000       Uiso       1.00
      F158          F  0.4485637  0.5559040  0.9459848    0.00000       Uiso       1.00
      F159          F  0.3932267  0.5035558  0.0647410    0.00000       Uiso       1.00
      F160          F  0.4768209  0.5524606  0.0728499    0.00000       Uiso       1.00
      F161          F  0.4434046  0.5818975  0.8886211    0.00000       Uiso       1.00
      F162          F  0.4923407  0.5391210  0.8050445    0.00000       Uiso       1.00
      F163          F  0.6529244  0.6026553  0.8685920    0.00000       Uiso       1.00
      F164          F  0.6610543  0.5190707  0.8257813    0.00000       Uiso       1.00
      C321          C  0.5797762  0.5291866  0.8797899    0.00000       Uiso       1.00
      C322          C  0.5687222  0.5036011  0.8741887    0.00000       Uiso       1.00
      C323          C  0.5430249  0.4931533  0.8843729    0.00000       Uiso       1.00
      C324          C  0.5650732  0.5442125  0.8958328    0.00000       Uiso       1.00
      C325          C  0.5394943  0.5335993  0.9061441    0.00000       Uiso       1.00
      C326          C  0.5277408  0.5078729  0.9008381    0.00000       Uiso       1.00
      C327          C  0.4679872  0.4161110  0.8926145    0.00000       Uiso       1.00
      C328          C  0.4840229  0.4308159  0.9063092    0.00000       Uiso       1.00
      C329          C  0.4943361  0.4563957  0.9109629    0.00000       Uiso       1.00
      C330          C  0.4623958  0.4271643  0.8836733    0.00000       Uiso       1.00
      C331          C  0.4725789  0.4528625  0.8887407    0.00000       Uiso       1.00
      C332          C  0.4890340  0.4681484  0.9022907    0.00000       Uiso       1.00
      C333          C  0.4666994  0.5150759  0.9915829    0.00000       Uiso       1.00
      C334          C  0.4516731  0.5013919  0.9768793    0.00000       Uiso       1.00
      C335          C  0.4622882  0.4967390  0.9512998    0.00000       Uiso       1.00
      C336          C  0.4922872  0.5240069  0.9805300    0.00000       Uiso       1.00
      C337          C  0.5027366  0.5189396  0.9548317    0.00000       Uiso       1.00
      C338          C  0.4880164  0.5054029  0.9395471    0.00000       Uiso       1.00
      C339          C  0.4808111  0.5279095  0.8785106    0.00000       Uiso       1.00
      C340          C  0.4718766  0.5335072  0.9040977    0.00000       Uiso       1.00
      C341          C  0.4769448  0.5233232  0.9145450    0.00000       Uiso       1.00
      C342          C  0.4944982  0.5118660  0.8634835    0.00000       Uiso       1.00
      C343          C  0.4991502  0.5015507  0.8740957    0.00000       Uiso       1.00
      C344          C  0.4904857  0.5068588  0.8998232    0.00000       Uiso       1.00
      C345          C  0.5070714  0.5375799  0.9954246    0.00000       Uiso       1.00
      C346          C  0.4966494  0.5421859  0.0208522    0.00000       Uiso       1.00
      C347          C  0.4262059  0.4922423  0.9880299    0.00000       Uiso       1.00
      C348          C  0.4157972  0.4965335  0.0133937    0.00000       Uiso       1.00
      C349          C  0.5836155  0.4888150  0.8580823    0.00000       Uiso       1.00
      C350          C  0.6090443  0.4992334  0.8476795    0.00000       Uiso       1.00
      C351          C  0.5762250  0.5696807  0.9010014    0.00000       Uiso       1.00
      C352          C  0.6015924  0.5800870  0.8903375    0.00000       Uiso       1.00
      C353          C  0.5036488  0.5067014  0.8380160    0.00000       Uiso       1.00
      C354          C  0.4993553  0.5173693  0.8276121    0.00000       Uiso       1.00
      C355          C  0.4891814  0.4196651  0.9154674    0.00000       Uiso       1.00
      C356          C  0.4785166  0.3942991  0.9111720    0.00000       Uiso       1.00
      F165          F  0.3887338  0.4863396  0.0243696    0.00000       Uiso       1.00
      F166          F  0.4098045  0.4775918  0.9729935    0.00000       Uiso       1.00
      F167          F  0.5341753  0.5473078  0.9843565    0.00000       Uiso       1.00
      F168          F  0.5130650  0.5566888  0.0358632    0.00000       Uiso       1.00
      F169          F  0.5611925  0.5860857  0.9177884    0.00000       Uiso       1.00
      F170          F  0.6125765  0.6071500  0.8962293    0.00000       Uiso       1.00
      F171          F  0.5725476  0.4617111  0.8517745    0.00000       Uiso       1.00
      F172          F  0.6240612  0.4828234  0.8307551    0.00000       Uiso       1.00
      F173          F  0.4844002  0.3833219  0.9213734    0.00000       Uiso       1.00
      F174          F  0.5059581  0.4347032  0.9301292    0.00000       Uiso       1.00
      F175          F  0.5095484  0.5114790  0.8005491    0.00000       Uiso       1.00
      F176          F  0.5182967  0.4899116  0.8216147    0.00000       Uiso       1.00
      F177          F  0.4460591  0.4816706  0.9360619    0.00000       Uiso       1.00
      F178          F  0.5299370  0.5274209  0.9439639    0.00000       Uiso       1.00
      F179          F  0.5142149  0.4851487  0.8578593    0.00000       Uiso       1.00
      F180          F  0.4684484  0.5311531  0.9417447    0.00000       Uiso       1.00
      F181          F  0.5107118  0.4716310  0.9260550    0.00000       Uiso       1.00
      F182          F  0.4647456  0.4637304  0.8802418    0.00000       Uiso       1.00
      F183          F  0.5242612  0.5498336  0.9225304    0.00000       Uiso       1.00
      F184          F  0.5321555  0.4659531  0.8765284    0.00000       Uiso       1.00
      C357          C  0.7362797  0.9521470  0.8135323    0.00000       Uiso       1.00
      C358          C  0.7235701  0.9503494  0.8369916    0.00000       Uiso       1.00
      C359          C  0.6980866  0.9464204  0.8477675    0.00000       Uiso       1.00
      C360          C  0.7235701  0.9503494  0.8009849    0.00000       Uiso       1.00
      C361          C  0.6981688  0.9465774  0.8117351    0.00000       Uiso       1.00
      C362          C  0.6847603  0.9443900  0.8353525    0.00000       Uiso       1.00
      C363          C  0.4017273  0.0059639  0.1480846    0.00000       Uiso       1.00
      C364          C  0.4251865  0.0185114  0.1353751    0.00000       Uiso       1.00
      C365          C  0.4360660  0.0077618  0.1099739    0.00000       Uiso       1.00
      C366          C  0.3891799  0.9825050  0.1353751    0.00000       Uiso       1.00
      C367          C  0.3999587  0.9717294  0.1098915    0.00000       Uiso       1.00
      C368          C  0.4236692  0.9841456  0.0965662    0.00000       Uiso       1.00
      C369          C  0.4017273  0.0059640  0.8673496    0.00000       Uiso       1.00
      C370          C  0.3891799  0.9825050  0.8691472    0.00000       Uiso       1.00
      C371          C  0.3999281  0.9716268  0.8729225    0.00000       Uiso       1.00
      C372          C  0.4251866  0.0185114  0.8691472    0.00000       Uiso       1.00
      C373          C  0.4359607  0.0077346  0.8730804    0.00000       Uiso       1.00
      C374          C  0.4235435  0.9840246  0.8751137    0.00000       Uiso       1.00
      C375          C  0.4555445  0.6714121  0.8135325    0.00000       Uiso       1.00
      C376          C  0.4573422  0.6841215  0.8009850    0.00000       Uiso       1.00
      C377          C  0.4612708  0.7096050  0.8117638    0.00000       Uiso       1.00
      C378          C  0.4573422  0.6841215  0.8369917    0.00000       Uiso       1.00
      C379          C  0.4611132  0.7095227  0.8478714    0.00000       Uiso       1.00
      C380          C  0.4633004  0.7229308  0.8354749    0.00000       Uiso       1.00
      C381          C  0.4988190  0.9088743  0.9106278    0.00000       Uiso       1.00
      F185          F  0.7367589  0.9522924  0.8507413    0.00000       Uiso       1.00
      F186          F  0.4553991  0.6709328  0.7759895    0.00000       Uiso       1.00
      F187          F  0.4389362  0.0435068  0.1485639    0.00000       Uiso       1.00
      F188          F  0.3641844  0.9687554  0.8672042    0.00000       Uiso       1.00
      F189          F  0.7367589  0.9522924  0.7759895    0.00000       Uiso       1.00
      F190          F  0.3641844  0.9687553  0.1485639    0.00000       Uiso       1.00
      F191          F  0.4389363  0.0435069  0.8672042    0.00000       Uiso       1.00
      F192          F  0.4553991  0.6709327  0.8507414    0.00000       Uiso       1.00
      F193          F  0.6852328  0.9438120  0.8724738    0.00000       Uiso       1.00
      F194          F  0.6857192  0.9453655  0.7977077    0.00000       Uiso       1.00
      F195          F  0.4623256  0.7219720  0.8731362    0.00000       Uiso       1.00
      F196          F  0.4638827  0.7224591  0.7973011    0.00000       Uiso       1.00
      F197          F  0.4613305  0.0217905  0.0975247    0.00000       Uiso       1.00
      F198          F  0.3854950  0.9470237  0.0970396    0.00000       Uiso       1.00
      F199          F  0.4606645  0.0222039  0.8756942    0.00000       Uiso       1.00
      F200          F  0.3858990  0.9463641  0.8741406    0.00000       Uiso       1.00
      C382          C  0.6572374  0.9399000  0.8467394    0.00000       Uiso       1.00
      C383          C  0.6458353  0.9492251  0.8723816    0.00000       Uiso       1.00
      C384          C  0.6202565  0.9449375  0.8829901    0.00000       Uiso       1.00
      C385          C  0.6420313  0.9261721  0.8320273    0.00000       Uiso       1.00
      C386          C  0.6164891  0.9219555  0.8423893    0.00000       Uiso       1.00
      C387          C  0.6055318  0.9313152  0.8679548    0.00000       Uiso       1.00
      C388          C  0.4353155  0.9727616  0.0690450    0.00000       Uiso       1.00
      C389          C  0.4514973  0.9874743  0.0538389    0.00000       Uiso       1.00
      C390          C  0.4624621  0.9771136  0.0282970    0.00000       Uiso       1.00
      C391          C  0.4304114  0.9471214  0.0576441    0.00000       Uiso       1.00
      C392          C  0.4410951  0.9365155  0.0320670    0.00000       Uiso       1.00
      C393          C  0.4572231  0.9515495  0.0173417    0.00000       Uiso       1.00
        H9          H  0.4184931  0.9353191  0.0686922    0.00000       Uiso       1.00
       H10          H  0.4553241  0.0070649  0.0617474    0.00000       Uiso       1.00
      C394          C  0.4349254  0.9723781  0.8796078    0.00000       Uiso       1.00
      C395          C  0.4202098  0.9561871  0.8933363    0.00000       Uiso       1.00
      C396          C  0.4305704  0.9452202  0.8975534    0.00000       Uiso       1.00
      C397          C  0.4605664  0.9772909  0.8702822    0.00000       Uiso       1.00
      C398          C  0.4711720  0.9666082  0.8745710    0.00000       Uiso       1.00
      C399          C  0.4561384  0.9504699  0.8881923    0.00000       Uiso       1.00
      C400          C  0.4677906  0.7504532  0.8471209    0.00000       Uiso       1.00
      C401          C  0.4584576  0.7618544  0.8422139    0.00000       Uiso       1.00
      C402          C  0.4627476  0.7874331  0.8528945    0.00000       Uiso       1.00
      C403          C  0.4815253  0.7656597  0.8633042    0.00000       Uiso       1.00
      C404          C  0.4857414  0.7912018  0.8742684    0.00000       Uiso       1.00
      C405          C  0.4763767  0.8021581  0.8690252    0.00000       Uiso       1.00
      C406          C  0.4536878  0.7986450  0.8476921    0.00000       Uiso       1.00
      C407          C  0.4582973  0.8240734  0.8580915    0.00000       Uiso       1.00
      C408          C  0.4358986  0.9110409  0.0208560    0.00000       Uiso       1.00
      C409          C  0.4463004  0.9006215  0.9954290    0.00000       Uiso       1.00
      F201          F  0.4400049  0.8735186  0.9843628    0.00000       Uiso       1.00
      F202          F  0.4189863  0.8946237  0.0358663    0.00000       Uiso       1.00
      F203          F  0.4391743  0.7836294  0.8307781    0.00000       Uiso       1.00
      F204          F  0.4485638  0.8351458  0.8517945    0.00000       Uiso       1.00
      F205          F  0.3932267  0.9509131  0.9041425    0.00000       Uiso       1.00
      F206          F  0.4768209  0.9937115  0.8552377    0.00000       Uiso       1.00
      F207          F  0.4434046  0.7466294  0.8258011    0.00000       Uiso       1.00
      F208          F  0.4923407  0.7547655  0.8685775    0.00000       Uiso       1.00
      F209          F  0.6529245  0.9153623  0.8050431    0.00000       Uiso       1.00
      F210          F  0.6610544  0.9642661  0.8886278    0.00000       Uiso       1.00
      C410          C  0.5797763  0.9268808  0.8785118    0.00000       Uiso       1.00
      C411          C  0.5687222  0.9358110  0.9040974    0.00000       Uiso       1.00
      C412          C  0.5430249  0.9307456  0.9145452    0.00000       Uiso       1.00
      C413          C  0.5650733  0.9131948  0.8634860    0.00000       Uiso       1.00
      C414          C  0.5394944  0.9085403  0.8740991    0.00000       Uiso       1.00
      C415          C  0.5277408  0.9172072  0.8998256    0.00000       Uiso       1.00
      C416          C  0.4679872  0.9409919  0.9915875    0.00000       Uiso       1.00
      C417          C  0.4840230  0.9560175  0.9768826    0.00000       Uiso       1.00
      C418          C  0.4943362  0.9454045  0.9513028    0.00000       Uiso       1.00
      C419          C  0.4623958  0.9154060  0.9805342    0.00000       Uiso       1.00
      C420          C  0.4725791  0.9049583  0.9548360    0.00000       Uiso       1.00
      C421          C  0.4890341  0.9196776  0.9395501    0.00000       Uiso       1.00
      C422          C  0.4666995  0.9397077  0.8926226    0.00000       Uiso       1.00
      C423          C  0.4516732  0.9236617  0.9063065    0.00000       Uiso       1.00
      C424          C  0.4622883  0.9133503  0.9109595    0.00000       Uiso       1.00
      C425          C  0.4922873  0.9453115  0.8836916    0.00000       Uiso       1.00
      C426          C  0.5027366  0.9351298  0.8887588    0.00000       Uiso       1.00
      C427          C  0.4880165  0.9186618  0.9022955    0.00000       Uiso       1.00
      C428          C  0.4808111  0.8279135  0.8797891    0.00000       Uiso       1.00
      C429          C  0.4718766  0.8389683  0.8741912    0.00000       Uiso       1.00
      C430          C  0.4769449  0.8646678  0.8843753    0.00000       Uiso       1.00
      C431          C  0.4944982  0.8426169  0.8958324    0.00000       Uiso       1.00
      C432          C  0.4991504  0.8681965  0.9061478    0.00000       Uiso       1.00
      C433          C  0.4904858  0.8799515  0.9008397    0.00000       Uiso       1.00
      C434          C  0.5070715  0.9614173  0.8701186    0.00000       Uiso       1.00
      C435          C  0.4966494  0.9718169  0.8655124    0.00000       Uiso       1.00
      C436          C  0.4262059  0.9184947  0.9154562    0.00000       Uiso       1.00
      C437          C  0.4157972  0.9291586  0.9111648    0.00000       Uiso       1.00
      C438          C  0.5836157  0.9493840  0.9188834    0.00000       Uiso       1.00
      C439          C  0.6090444  0.9539915  0.9084651    0.00000       Uiso       1.00
      C440          C  0.5762251  0.9040470  0.8380178    0.00000       Uiso       1.00
      C441          C  0.6015924  0.9083441  0.8276115    0.00000       Uiso       1.00
      C442          C  0.5036489  0.8314647  0.9009971    0.00000       Uiso       1.00
      C443          C  0.4993553  0.8060993  0.8903292    0.00000       Uiso       1.00
      C444          C  0.4891815  0.9814849  0.9880334    0.00000       Uiso       1.00
      C445          C  0.4785168  0.9918904  0.0133990    0.00000       Uiso       1.00
      F211          F  0.3887338  0.9232651  0.9213586    0.00000       Uiso       1.00
      F212          F  0.4098046  0.9017075  0.9301068    0.00000       Uiso       1.00
      F213          F  0.5341755  0.9677252  0.8603906    0.00000       Uiso       1.00
      F214          F  0.5130650  0.9887406  0.8510094    0.00000       Uiso       1.00
      F215          F  0.5611926  0.8893963  0.8216127    0.00000       Uiso       1.00
      F216          F  0.6125766  0.8981571  0.8005484    0.00000       Uiso       1.00
      F217          F  0.5725476  0.9591121  0.9459874    0.00000       Uiso       1.00
      F218          F  0.6240613  0.9684941  0.9248750    0.00000       Uiso       1.00
      F219          F  0.4844004  0.0189523  0.0243763    0.00000       Uiso       1.00
      F220          F  0.5059583  0.9978853  0.9729952    0.00000       Uiso       1.00
      F221          F  0.5095484  0.7951198  0.8962196    0.00000       Uiso       1.00
      F222          F  0.5182967  0.8465009  0.9177869    0.00000       Uiso       1.00
      F223          F  0.4460592  0.8969516  0.9260279    0.00000       Uiso       1.00
      F224          F  0.5299371  0.9429812  0.8802776    0.00000       Uiso       1.00
      F225          F  0.5142149  0.8834267  0.9225498    0.00000       Uiso       1.00
      F226          F  0.4684485  0.8755412  0.8765453    0.00000       Uiso       1.00
      F227          F  0.5107120  0.9616371  0.9360675    0.00000       Uiso       1.00
      F228          F  0.4647456  0.8777581  0.9439681    0.00000       Uiso       1.00
      F229          F  0.5242613  0.8934592  0.8578649    0.00000       Uiso       1.00
      F230          F  0.5321556  0.9392321  0.9417454    0.00000       Uiso       1.00
      C446          C  0.8135253  0.6714119  0.8135325    0.00000       Uiso       1.00
      C447          C  0.8009779  0.6841214  0.8369917    0.00000       Uiso       1.00
      C448          C  0.8117567  0.7096050  0.8477675    0.00000       Uiso       1.00
      C449          C  0.8369846  0.6841214  0.8009850    0.00000       Uiso       1.00
      C450          C  0.8478639  0.7095228  0.8117352    0.00000       Uiso       1.00
      C451          C  0.8354676  0.7229313  0.8353526    0.00000       Uiso       1.00
      C452          C  0.8673428  0.0059639  0.1480846    0.00000       Uiso       1.00
      C453          C  0.8691404  0.9825050  0.1353751    0.00000       Uiso       1.00
      C454          C  0.8729126  0.9716254  0.1099739    0.00000       Uiso       1.00
      C455          C  0.8691404  0.0185113  0.1353751    0.00000       Uiso       1.00
      C456          C  0.8730696  0.0077325  0.1098915    0.00000       Uiso       1.00
      C457          C  0.8751007  0.9840223  0.0965663    0.00000       Uiso       1.00
      C458          C  0.1480773  0.0059639  0.8673497    0.00000       Uiso       1.00
      C459          C  0.1353678  0.0185113  0.8691473    0.00000       Uiso       1.00
      C460          C  0.1099662  0.0077631  0.8729225    0.00000       Uiso       1.00
      C461          C  0.1353678  0.9825050  0.8691474    0.00000       Uiso       1.00
      C462          C  0.1098838  0.9717309  0.8730804    0.00000       Uiso       1.00
      C463          C  0.0965574  0.9841481  0.8751138    0.00000       Uiso       1.00
      C464          C  0.8135255  0.9521469  0.8135324    0.00000       Uiso       1.00
      C465          C  0.8369847  0.9503493  0.8009850    0.00000       Uiso       1.00
      C466          C  0.8477607  0.9464207  0.8117638    0.00000       Uiso       1.00
      C467          C  0.8009780  0.9503494  0.8369917    0.00000       Uiso       1.00
      C468          C  0.8117285  0.9465783  0.8478714    0.00000       Uiso       1.00
      C469          C  0.8353458  0.9443911  0.8354749    0.00000       Uiso       1.00
      C470          C  0.9106177  0.9088726  0.9106279    0.00000       Uiso       1.00
      F231          F  0.7759825  0.6709326  0.8507414    0.00000       Uiso       1.00
      F232          F  0.8507344  0.9522924  0.7759895    0.00000       Uiso       1.00
      F233          F  0.8671973  0.9687552  0.1485640    0.00000       Uiso       1.00
      F234          F  0.1485566  0.0435068  0.8672043    0.00000       Uiso       1.00
      F235          F  0.8507343  0.6709326  0.7759895    0.00000       Uiso       1.00
      F236          F  0.8671974  0.0435068  0.1485639    0.00000       Uiso       1.00
      F237          F  0.1485566  0.9687552  0.8672043    0.00000       Uiso       1.00
      F238          F  0.7759826  0.9522924  0.8507414    0.00000       Uiso       1.00
      F239          F  0.7972957  0.7224588  0.8724739    0.00000       Uiso       1.00
      F240          F  0.8731290  0.7219723  0.7977078    0.00000       Uiso       1.00
      F241          F  0.7977005  0.9453660  0.8731362    0.00000       Uiso       1.00
      F242          F  0.8724656  0.9438089  0.7973011    0.00000       Uiso       1.00
      F243          F  0.8741260  0.9463610  0.0975248    0.00000       Uiso       1.00
      F244          F  0.8756795  0.0221961  0.0970397    0.00000       Uiso       1.00
      F245          F  0.0970355  0.9470271  0.8756943    0.00000       Uiso       1.00
      F246          F  0.0975145  0.0217922  0.8741407    0.00000       Uiso       1.00
      C471          C  0.8471136  0.7504541  0.8467394    0.00000       Uiso       1.00
      C472          C  0.8421986  0.7618563  0.8723817    0.00000       Uiso       1.00
      C473          C  0.8528811  0.7874351  0.8829901    0.00000       Uiso       1.00
      C474          C  0.8633038  0.7656602  0.8320273    0.00000       Uiso       1.00
      C475          C  0.8742674  0.7912025  0.8423893    0.00000       Uiso       1.00
      C476          C  0.8690189  0.8021597  0.8679549    0.00000       Uiso       1.00
      C477          C  0.8795915  0.9723760  0.0690451    0.00000       Uiso       1.00
      C478          C  0.8933284  0.9561941  0.0538390    0.00000       Uiso       1.00
      C479          C  0.8975449  0.9452294  0.0282971    0.00000       Uiso       1.00
      C480          C  0.8702563  0.9772801  0.0576442    0.00000       Uiso       1.00
      C481          C  0.8745437  0.9665963  0.0320670    0.00000       Uiso       1.00
      C482          C  0.8881751  0.9504684  0.0173418    0.00000       Uiso       1.00
       H11          H  0.8593243  0.9891983  0.0686922    0.00000       Uiso       1.00
       H12          H  0.9011842  0.9523675  0.0617475    0.00000       Uiso       1.00
      C483          C  0.0690348  0.9727662  0.8796079    0.00000       Uiso       1.00
      C484          C  0.0538311  0.9874818  0.8933364    0.00000       Uiso       1.00
      C485          C  0.0282864  0.9771211  0.8975534    0.00000       Uiso       1.00
      C486          C  0.0576322  0.9471251  0.8702824    0.00000       Uiso       1.00
      C487          C  0.0320552  0.9365196  0.8745711    0.00000       Uiso       1.00
      C488          C  0.0173291  0.9515531  0.8881924    0.00000       Uiso       1.00
      C489          C  0.8467320  0.9399009  0.8471209    0.00000       Uiso       1.00
      C490          C  0.8723731  0.9492339  0.8422140    0.00000       Uiso       1.00
      C491          C  0.8829814  0.9449440  0.8528945    0.00000       Uiso       1.00
      C492          C  0.8320205  0.9261662  0.8633042    0.00000       Uiso       1.00
      C493          C  0.8423824  0.9219501  0.8742684    0.00000       Uiso       1.00
      C494          C  0.8679466  0.9313148  0.8690252    0.00000       Uiso       1.00
      C495          C  0.9084554  0.9540037  0.8476921    0.00000       Uiso       1.00
      C496          C  0.9188750  0.9493943  0.8580916    0.00000       Uiso       1.00
      C497          C  0.8654766  0.9717928  0.0208561    0.00000       Uiso       1.00
      C498          C  0.8700824  0.9613912  0.9954290    0.00000       Uiso       1.00
      F247          F  0.8603413  0.9676867  0.9843628    0.00000       Uiso       1.00
      F248          F  0.8509615  0.9887052  0.0358664    0.00000       Uiso       1.00
      F249          F  0.9248673  0.9685172  0.8307781    0.00000       Uiso       1.00
      F250          F  0.9459778  0.9591278  0.8517945    0.00000       Uiso       1.00
      F251          F  0.0647339  0.0144646  0.9041426    0.00000       Uiso       1.00
      F252          F  0.0728429  0.9308707  0.8552377    0.00000       Uiso       1.00
      F253          F  0.8886141  0.9642870  0.8258011    0.00000       Uiso       1.00
      F254          F  0.8050375  0.9153508  0.8685775    0.00000       Uiso       1.00
      F255          F  0.8685850  0.7547671  0.8050432    0.00000       Uiso       1.00
      F256          F  0.8257743  0.7466372  0.8886279    0.00000       Uiso       1.00
      C499          C  0.8797829  0.8279153  0.8785120    0.00000       Uiso       1.00
      C500          C  0.8741817  0.8389693  0.9040974    0.00000       Uiso       1.00
      C501          C  0.8843658  0.8646666  0.9145452    0.00000       Uiso       1.00
      C502          C  0.8958257  0.8426183  0.8634861    0.00000       Uiso       1.00
      C503          C  0.9061370  0.8681971  0.8740993    0.00000       Uiso       1.00
      C504          C  0.9008310  0.8799506  0.8998256    0.00000       Uiso       1.00
      C505          C  0.8926075  0.9397043  0.9915876    0.00000       Uiso       1.00
      C506          C  0.9063022  0.9236685  0.9768826    0.00000       Uiso       1.00
      C507          C  0.9109558  0.9133554  0.9513028    0.00000       Uiso       1.00
      C508          C  0.8836662  0.9452958  0.9805343    0.00000       Uiso       1.00
      C509          C  0.8887336  0.9351125  0.9548360    0.00000       Uiso       1.00
      C510          C  0.9022837  0.9186575  0.9395502    0.00000       Uiso       1.00
      C511          C  0.9915759  0.9409921  0.8926226    0.00000       Uiso       1.00
      C512          C  0.9768722  0.9560183  0.9063066    0.00000       Uiso       1.00
      C513          C  0.9512928  0.9454033  0.9109595    0.00000       Uiso       1.00
      C514          C  0.9805229  0.9154043  0.8836917    0.00000       Uiso       1.00
      C515          C  0.9548246  0.9049549  0.8887589    0.00000       Uiso       1.00
      C516          C  0.9395401  0.9196751  0.9022956    0.00000       Uiso       1.00
      C517          C  0.8785036  0.9268804  0.8797891    0.00000       Uiso       1.00
      C518          C  0.9040907  0.9358149  0.8741913    0.00000       Uiso       1.00
      C519          C  0.9145380  0.9307467  0.8843753    0.00000       Uiso       1.00
      C520          C  0.8634765  0.9131933  0.8958324    0.00000       Uiso       1.00
      C521          C  0.8740886  0.9085412  0.9061478    0.00000       Uiso       1.00
      C522          C  0.8998162  0.9172058  0.9008398    0.00000       Uiso       1.00
      C523          C  0.9954175  0.9006200  0.8701186    0.00000       Uiso       1.00
      C524          C  0.0208451  0.9110422  0.8655125    0.00000       Uiso       1.00
      C525          C  0.9880229  0.9814856  0.9154562    0.00000       Uiso       1.00
      C526          C  0.0133867  0.9918944  0.9111648    0.00000       Uiso       1.00
      C527          C  0.8580752  0.8240759  0.9188835    0.00000       Uiso       1.00
      C528          C  0.8476724  0.7986472  0.9084651    0.00000       Uiso       1.00
      C529          C  0.9009944  0.8314664  0.8380178    0.00000       Uiso       1.00
      C530          C  0.8903306  0.8060991  0.8276116    0.00000       Uiso       1.00
      C531          C  0.8380091  0.9040427  0.9009972    0.00000       Uiso       1.00
      C532          C  0.8276051  0.9083362  0.8903292    0.00000       Uiso       1.00
      C533          C  0.9154604  0.9185101  0.9880335    0.00000       Uiso       1.00
      C534          C  0.9111650  0.9291747  0.0133991    0.00000       Uiso       1.00
      F257          F  0.0243626  0.0189574  0.9213588    0.00000       Uiso       1.00
      F258          F  0.9729865  0.9978870  0.9301068    0.00000       Uiso       1.00
      F259          F  0.9843494  0.8735161  0.8603907    0.00000       Uiso       1.00
      F260          F  0.0358562  0.8946266  0.8510095    0.00000       Uiso       1.00
      F261          F  0.9177814  0.8464990  0.8216128    0.00000       Uiso       1.00
      F262          F  0.8962223  0.7951149  0.8005485    0.00000       Uiso       1.00
      F263          F  0.8517674  0.8351439  0.9459875    0.00000       Uiso       1.00
      F264          F  0.8307481  0.7836303  0.9248751    0.00000       Uiso       1.00
      F265          F  0.9213664  0.9232911  0.0243764    0.00000       Uiso       1.00
      F266          F  0.9301223  0.9017333  0.9729953    0.00000       Uiso       1.00
      F267          F  0.8005422  0.8981431  0.8962196    0.00000       Uiso       1.00
      F268          F  0.8216076  0.8893948  0.9177870    0.00000       Uiso       1.00
      F269          F  0.9360548  0.9616324  0.9260280    0.00000       Uiso       1.00
      F270          F  0.9439569  0.8777544  0.8802776    0.00000       Uiso       1.00
      F271          F  0.8578522  0.8934766  0.9225498    0.00000       Uiso       1.00
      F272          F  0.9417377  0.9392431  0.8765454    0.00000       Uiso       1.00
      F273          F  0.9260479  0.8969796  0.9360676    0.00000       Uiso       1.00
      F274          F  0.8802347  0.9429459  0.9439682    0.00000       Uiso       1.00
      F275          F  0.9225233  0.8834302  0.8578650    0.00000       Uiso       1.00
      F276          F  0.8765213  0.8755360  0.9417455    0.00000       Uiso       1.00
        O1          O  0.8135262  0.6320440  0.4540614    0.00000       Uiso       1.00
        B1          B  0.8004038  0.6439927  0.4543762    0.00000       Uiso       1.00
        B2          B  0.7636986  0.6072875  0.4543762    0.00000       Uiso       1.00
        O2          O  0.7756473  0.6320441  0.4540615    0.00000       Uiso       1.00
        O3          O  0.7756469  0.5941647  0.4540614    0.00000       Uiso       1.00
        B3          B  0.8004032  0.6072875  0.4543762    0.00000       Uiso       1.00
        O4          O  0.4540546  0.6320449  0.8135332    0.00000       Uiso       1.00
        B4          B  0.4543694  0.6072885  0.8004107    0.00000       Uiso       1.00
        B5          B  0.4543693  0.6072885  0.7637056    0.00000       Uiso       1.00
        O5          O  0.4540546  0.5941659  0.7756542    0.00000       Uiso       1.00
        O6          O  0.4540546  0.6320449  0.7756538    0.00000       Uiso       1.00
        B6          B  0.4543693  0.6439932  0.8004103    0.00000       Uiso       1.00
      C535          C  0.3617543  0.5448260  0.3819507    0.00000       Uiso       1.00
      C536          C  0.3409217  0.5460814  0.3830530    0.00000       Uiso       1.00
      C537          C  0.3209268  0.5485213  0.4048208    0.00000       Uiso       1.00
      C538          C  0.2997395  0.5485104  0.4052562    0.00000       Uiso       1.00
      C539          C  0.2975171  0.5446686  0.3835754    0.00000       Uiso       1.00
      C540          C  0.3177606  0.5418758  0.3617596    0.00000       Uiso       1.00
      C541          C  0.3401049  0.5442776  0.3614257    0.00000       Uiso       1.00
        O7          O  0.3650972  0.5453522  0.4011394    0.00000       Uiso       1.00
       H13          H  0.3218176  0.5504607  0.4215334    0.00000       Uiso       1.00
       H14          H  0.2851574  0.5512696  0.4226870    0.00000       Uiso       1.00
       H15          H  0.3156598  0.5362487  0.3445987    0.00000       Uiso       1.00
      C542          C  0.3819475  0.5448904  0.2123508    0.00000       Uiso       1.00
      C543          C  0.3830526  0.5461605  0.2333429    0.00000       Uiso       1.00
      C544          C  0.4048155  0.5485882  0.2340106    0.00000       Uiso       1.00
      C545          C  0.4052446  0.5485702  0.2547514    0.00000       Uiso       1.00
      C546          C  0.3835616  0.5447268  0.2748102    0.00000       Uiso       1.00
      C547          C  0.3617538  0.5419584  0.2735915    0.00000       Uiso       1.00
      C548          C  0.3614280  0.5443703  0.2539844    0.00000       Uiso       1.00
        O8          O  0.4011301  0.5453835  0.1903359    0.00000       Uiso       1.00
       H16          H  0.4215269  0.5505115  0.2183447    0.00000       Uiso       1.00
       H17          H  0.4226725  0.5513172  0.2546579    0.00000       Uiso       1.00
       H18          H  0.3445883  0.5363330  0.2872182    0.00000       Uiso       1.00
      C549          C  0.2123311  0.5448683  0.3617910    0.00000       Uiso       1.00
      C550          C  0.2333267  0.5461571  0.3409740    0.00000       Uiso       1.00
      C551          C  0.2339980  0.5486190  0.3209904    0.00000       Uiso       1.00
      C552          C  0.2547471  0.5486315  0.2998089    0.00000       Uiso       1.00
      C553          C  0.2748115  0.5447916  0.2975837    0.00000       Uiso       1.00
      C554          C  0.2735907  0.5419902  0.3178245    0.00000       Uiso       1.00
      C555          C  0.2539684  0.5443606  0.3401606    0.00000       Uiso       1.00
        O9          O  0.1903272  0.5453902  0.3651268    0.00000       Uiso       1.00
       H19          H  0.2183231  0.5505451  0.3218855    0.00000       Uiso       1.00
       H20          H  0.2546570  0.5513964  0.2852302    0.00000       Uiso       1.00
       H21          H  0.2872306  0.5363718  0.3157256    0.00000       Uiso       1.00
      C556          C  0.2113337  0.5416937  0.3810499    0.00000       Uiso       1.00
      C557          C  0.2317426  0.5411121  0.3815102    0.00000       Uiso       1.00
      C558          C  0.2308157  0.5384542  0.4015099    0.00000       Uiso       1.00
      C559          C  0.2517142  0.5388463  0.4020309    0.00000       Uiso       1.00
      C560          C  0.2744313  0.5433215  0.3831743    0.00000       Uiso       1.00
      C561          C  0.2750660  0.5465064  0.3634614    0.00000       Uiso       1.00
      C562          C  0.2537540  0.5436575  0.3613617    0.00000       Uiso       1.00
       O10          O  0.1886011  0.5398840  0.3994042    0.00000       Uiso       1.00
       H22          H  0.2137571  0.5359753  0.4167230    0.00000       Uiso       1.00
       H23          H  0.2498019  0.5358119  0.4174462    0.00000       Uiso       1.00
       H24          H  0.2924674  0.5526551  0.3503404    0.00000       Uiso       1.00
      C563          C  0.3605196  0.5417578  0.2113682    0.00000       Uiso       1.00
      C564          C  0.3390761  0.5411989  0.2317856    0.00000       Uiso       1.00
      C565          C  0.3173564  0.5385937  0.2308793    0.00000       Uiso       1.00
      C566          C  0.2963376  0.5390021  0.2517847    0.00000       Uiso       1.00
      C567          C  0.2969464  0.5434363  0.2744913    0.00000       Uiso       1.00
      C568          C  0.3192005  0.5465721  0.2751047    0.00000       Uiso       1.00
      C569          C  0.3397529  0.5437109  0.2537851    0.00000       Uiso       1.00
       O11          O  0.3630887  0.5399554  0.1886389    0.00000       Uiso       1.00
       H25          H  0.3167213  0.5361323  0.2138273    0.00000       Uiso       1.00
       H26          H  0.2798096  0.5360044  0.2498805    0.00000       Uiso       1.00
       H27          H  0.3210807  0.5527028  0.2924961    0.00000       Uiso       1.00
      C570          C  0.3810303  0.5416909  0.3605194    0.00000       Uiso       1.00
      C571          C  0.3814870  0.5411158  0.3390746    0.00000       Uiso       1.00
      C572          C  0.4015108  0.5385177  0.3173597    0.00000       Uiso       1.00
      C573          C  0.4020379  0.5389296  0.2963404    0.00000       Uiso       1.00
      C574          C  0.3831500  0.5433511  0.2969427    0.00000       Uiso       1.00
      C575          C  0.3634066  0.5464694  0.3191925    0.00000       Uiso       1.00
      C576          C  0.3613164  0.5436140  0.3397476    0.00000       Uiso       1.00
       O12          O  0.3994031  0.5399154  0.3630901    0.00000       Uiso       1.00
       H28          H  0.4167382  0.5360660  0.3167341    0.00000       Uiso       1.00
       H29          H  0.4174827  0.5359476  0.2798196    0.00000       Uiso       1.00
       H30          H  0.3502568  0.5525879  0.3210683    0.00000       Uiso       1.00
        B7          B  0.3890729  0.5422279  0.3889467    0.00000       Uiso       1.00
        B8          B  0.3889399  0.5422464  0.1754197    0.00000       Uiso       1.00
        B9          B  0.1754000  0.5422235  0.3890819    0.00000       Uiso       1.00
      C577          C  0.3819437  0.1953798  0.3617610    0.00000       Uiso       1.00
      C578          C  0.3830461  0.1743942  0.3409284    0.00000       Uiso       1.00
      C579          C  0.4048138  0.1737270  0.3209335    0.00000       Uiso       1.00
      C580          C  0.4052492  0.1529861  0.2997462    0.00000       Uiso       1.00
      C581          C  0.3835685  0.1329247  0.2975238    0.00000       Uiso       1.00
      C582          C  0.3617526  0.1341451  0.3177673    0.00000       Uiso       1.00
      C583          C  0.3614187  0.1537538  0.3401116    0.00000       Uiso       1.00
       O13          O  0.4011324  0.2173852  0.3651040    0.00000       Uiso       1.00
       H31          H  0.4215264  0.1893911  0.3218244    0.00000       Uiso       1.00
       H32          H  0.4226801  0.1530756  0.2851641    0.00000       Uiso       1.00
       H33          H  0.3445917  0.1205105  0.3156665    0.00000       Uiso       1.00
      C584          C  0.2123438  0.0459086  0.3819543    0.00000       Uiso       1.00
      C585          C  0.2333359  0.0667358  0.3830594    0.00000       Uiso       1.00
      C586          C  0.2340036  0.0867386  0.4048222    0.00000       Uiso       1.00
      C587          C  0.2547445  0.1079266  0.4052513    0.00000       Uiso       1.00
      C588          C  0.2748032  0.1101457  0.3835683    0.00000       Uiso       1.00
      C589          C  0.2735845  0.0898876  0.3617605    0.00000       Uiso       1.00
      C590          C  0.2539774  0.0675429  0.3614348    0.00000       Uiso       1.00
       O14          O  0.1903290  0.0425833  0.4011368    0.00000       Uiso       1.00
       H34          H  0.2183378  0.0858609  0.4215336    0.00000       Uiso       1.00
       H35          H  0.2546510  0.1225139  0.4226792    0.00000       Uiso       1.00
       H36          H  0.2872112  0.0919743  0.3445950    0.00000       Uiso       1.00
      C591          C  0.3617841  0.0257546  0.2123378    0.00000       Uiso       1.00
      C592          C  0.3409671  0.0246444  0.2333335    0.00000       Uiso       1.00
      C593          C  0.3209834  0.0028701  0.2340048    0.00000       Uiso       1.00
      C594          C  0.2998019  0.0024253  0.2547538    0.00000       Uiso       1.00
      C595          C  0.2975767  0.0241043  0.2748183    0.00000       Uiso       1.00
      C596          C  0.3178176  0.0459258  0.2735974    0.00000       Uiso       1.00
      C597          C  0.3401536  0.0462691  0.2539751    0.00000       Uiso       1.00
       O15          O  0.3651198  0.0065645  0.1903339    0.00000       Uiso       1.00
       H37          H  0.3218785  0.9861646  0.2183299    0.00000       Uiso       1.00
       H38          H  0.2852233  0.9849918  0.2546637    0.00000       Uiso       1.00
       H39          H  0.3157187  0.0630853  0.2872374    0.00000       Uiso       1.00
      C598          C  0.3810429  0.0471907  0.2113405    0.00000       Uiso       1.00
      C599          C  0.3815033  0.0686415  0.2317493    0.00000       Uiso       1.00
      C600          C  0.4015029  0.0903721  0.2308225    0.00000       Uiso       1.00
      C601          C  0.4020240  0.1113996  0.2517209    0.00000       Uiso       1.00
      C602          C  0.3831673  0.1107849  0.2744380    0.00000       Uiso       1.00
      C603          C  0.3634545  0.0885217  0.2750727    0.00000       Uiso       1.00
      C604          C  0.3613547  0.0679589  0.2537607    0.00000       Uiso       1.00
       O16          O  0.3993973  0.0446222  0.1886079    0.00000       Uiso       1.00
       H40          H  0.4167159  0.0910054  0.2137639    0.00000       Uiso       1.00
       H41          H  0.4174392  0.1279369  0.2498086    0.00000       Uiso       1.00
       H42          H  0.3503335  0.0866536  0.2924742    0.00000       Uiso       1.00
      C605          C  0.2113612  0.0266307  0.3605263    0.00000       Uiso       1.00
      C606          C  0.2317786  0.0261635  0.3390828    0.00000       Uiso       1.00
      C607          C  0.2308724  0.0061428  0.3173631    0.00000       Uiso       1.00
      C608          C  0.2517777  0.0056209  0.2963443    0.00000       Uiso       1.00
      C609          C  0.2744843  0.0245022  0.2969532    0.00000       Uiso       1.00
      C610          C  0.2750977  0.0442339  0.3192073    0.00000       Uiso       1.00
      C611          C  0.2537781  0.0463278  0.3397596    0.00000       Uiso       1.00
       O17          O  0.1886320  0.0082729  0.3630954    0.00000       Uiso       1.00
       H43          H  0.2138203  0.9909174  0.3167281    0.00000       Uiso       1.00
       H44          H  0.2498736  0.9901869  0.2798164    0.00000       Uiso       1.00
       H45          H  0.2924891  0.0573746  0.3210874    0.00000       Uiso       1.00
      C612          C  0.3605124  0.1963595  0.3810370    0.00000       Uiso       1.00
      C613          C  0.3390676  0.1759465  0.3814937    0.00000       Uiso       1.00
      C614          C  0.3173527  0.1768535  0.4015175    0.00000       Uiso       1.00
      C615          C  0.2963334  0.1559494  0.4020446    0.00000       Uiso       1.00
      C616          C  0.2969356  0.1332423  0.3831567    0.00000       Uiso       1.00
      C617          C  0.3191856  0.1326305  0.3634134    0.00000       Uiso       1.00
      C618          C  0.3397406  0.1539508  0.3613231    0.00000       Uiso       1.00
       O18          O  0.3630831  0.2190786  0.3994099    0.00000       Uiso       1.00
       H46          H  0.3167271  0.1939070  0.4167449    0.00000       Uiso       1.00
       H47          H  0.2798126  0.1578554  0.4174894    0.00000       Uiso       1.00
       H48          H  0.3210613  0.1152380  0.3502635    0.00000       Uiso       1.00
       B10          B  0.3889397  0.2322925  0.3890796    0.00000       Uiso       1.00
       B11          B  0.1754127  0.0186140  0.3889467    0.00000       Uiso       1.00
       B12          B  0.3890749  0.0187592  0.1754068    0.00000       Uiso       1.00
       O19          O  0.7756474  0.9536369  0.8135331    0.00000       Uiso       1.00
       B13          B  0.7636988  0.9533221  0.8004107    0.00000       Uiso       1.00
       B14          B  0.8004039  0.9533221  0.7637055    0.00000       Uiso       1.00
       O20          O  0.7756474  0.9536368  0.7756542    0.00000       Uiso       1.00
       O21          O  0.8135268  0.9536370  0.7756538    0.00000       Uiso       1.00
       B15          B  0.8004040  0.9533222  0.8004102    0.00000       Uiso       1.00
      C619          C  0.8628655  0.0257473  0.3617609    0.00000       Uiso       1.00
      C620          C  0.8616102  0.0246450  0.3409283    0.00000       Uiso       1.00
      C621          C  0.8591701  0.0028772  0.3209334    0.00000       Uiso       1.00
      C622          C  0.8591811  0.0024418  0.2997460    0.00000       Uiso       1.00
      C623          C  0.8630229  0.0241226  0.2975236    0.00000       Uiso       1.00
      C624          C  0.8658156  0.0459385  0.3177671    0.00000       Uiso       1.00
      C625          C  0.8634139  0.0462723  0.3401115    0.00000       Uiso       1.00
       O22          O  0.8623393  0.0065586  0.3651038    0.00000       Uiso       1.00
       H49          H  0.8572308  0.9861649  0.3218242    0.00000       Uiso       1.00
       H50          H  0.8564219  0.9850113  0.2851640    0.00000       Uiso       1.00
       H51          H  0.8714428  0.0630993  0.3156663    0.00000       Uiso       1.00
      C626          C  0.8628010  0.1953472  0.3819540    0.00000       Uiso       1.00
      C627          C  0.8615311  0.1743551  0.3830591    0.00000       Uiso       1.00
      C628          C  0.8591033  0.1736874  0.4048220    0.00000       Uiso       1.00
      C629          C  0.8591213  0.1529466  0.4052511    0.00000       Uiso       1.00
      C630          C  0.8629646  0.1328879  0.3835681    0.00000       Uiso       1.00
      C631          C  0.8657331  0.1341066  0.3617603    0.00000       Uiso       1.00
      C632          C  0.8633212  0.1537136  0.3614345    0.00000       Uiso       1.00
       O23          O  0.8623080  0.2173621  0.4011366    0.00000       Uiso       1.00
       H52          H  0.8571800  0.1893533  0.4215334    0.00000       Uiso       1.00
       H53          H  0.8563743  0.1530401  0.4226790    0.00000       Uiso       1.00
       H54          H  0.8713585  0.1204798  0.3445949    0.00000       Uiso       1.00
      C633          C  0.8628233  0.0459070  0.2123376    0.00000       Uiso       1.00
      C634          C  0.8615343  0.0667240  0.2333333    0.00000       Uiso       1.00
      C635          C  0.8590724  0.0867076  0.2340045    0.00000       Uiso       1.00
      C636          C  0.8590600  0.1078891  0.2547536    0.00000       Uiso       1.00
      C637          C  0.8628998  0.1101143  0.2748181    0.00000       Uiso       1.00
      C638          C  0.8657013  0.0898735  0.2735972    0.00000       Uiso       1.00
      C639          C  0.8633308  0.0675374  0.2539749    0.00000       Uiso       1.00
       O24          O  0.8623013  0.0425712  0.1903337    0.00000       Uiso       1.00
       H55          H  0.8571464  0.0858125  0.2183297    0.00000       Uiso       1.00
       H56          H  0.8562950  0.1224678  0.2546635    0.00000       Uiso       1.00
       H57          H  0.8713198  0.0919724  0.2872372    0.00000       Uiso       1.00
      C640          C  0.8659978  0.0266481  0.2113403    0.00000       Uiso       1.00
      C641          C  0.8665794  0.0261878  0.2317491    0.00000       Uiso       1.00
      C642          C  0.8692372  0.0061882  0.2308223    0.00000       Uiso       1.00
      C643          C  0.8688452  0.0056670  0.2517208    0.00000       Uiso       1.00
      C644          C  0.8643700  0.0245237  0.2744378    0.00000       Uiso       1.00
      C645          C  0.8611851  0.0442366  0.2750725    0.00000       Uiso       1.00
      C646          C  0.8640340  0.0463363  0.2537605    0.00000       Uiso       1.00
       O25          O  0.8678075  0.0082938  0.1886077    0.00000       Uiso       1.00
       H58          H  0.8717161  0.9909754  0.2137637    0.00000       Uiso       1.00
       H59          H  0.8718796  0.9902522  0.2498085    0.00000       Uiso       1.00
       H60          H  0.8550364  0.0573576  0.2924740    0.00000       Uiso       1.00
      C647          C  0.8659337  0.1963298  0.3605261    0.00000       Uiso       1.00
      C648          C  0.8664926  0.1759124  0.3390826    0.00000       Uiso       1.00
      C649          C  0.8690978  0.1768187  0.3173629    0.00000       Uiso       1.00
      C650          C  0.8686894  0.1559133  0.2963441    0.00000       Uiso       1.00
      C651          C  0.8642552  0.1332067  0.2969530    0.00000       Uiso       1.00
      C652          C  0.8611194  0.1325933  0.3192071    0.00000       Uiso       1.00
      C653          C  0.8639806  0.1539129  0.3397594    0.00000       Uiso       1.00
       O26          O  0.8677360  0.2190591  0.3630952    0.00000       Uiso       1.00
       H61          H  0.8715592  0.1938707  0.3167278    0.00000       Uiso       1.00
       H62          H  0.8716871  0.1578175  0.2798161    0.00000       Uiso       1.00
       H63          H  0.8549887  0.1152020  0.3210872    0.00000       Uiso       1.00
      C654          C  0.8660005  0.0471787  0.3810368    0.00000       Uiso       1.00
      C655          C  0.8665756  0.0686234  0.3814935    0.00000       Uiso       1.00
      C656          C  0.8691738  0.0903384  0.4015174    0.00000       Uiso       1.00
      C657          C  0.8687620  0.1113577  0.4020444    0.00000       Uiso       1.00
      C658          C  0.8643404  0.1107554  0.3831565    0.00000       Uiso       1.00
      C659          C  0.8612220  0.0885055  0.3634132    0.00000       Uiso       1.00
      C660          C  0.8640775  0.0679504  0.3613229    0.00000       Uiso       1.00
       O27          O  0.8677761  0.0446080  0.3994097    0.00000       Uiso       1.00
       H64          H  0.8716255  0.0909640  0.4167447    0.00000       Uiso       1.00
       H65          H  0.8717439  0.1278784  0.4174892    0.00000       Uiso       1.00
       H66          H  0.8551037  0.0866297  0.3502633    0.00000       Uiso       1.00
       B16          B  0.8654636  0.0187513  0.3890795    0.00000       Uiso       1.00
       B17          B  0.8654451  0.2322783  0.3889464    0.00000       Uiso       1.00
       B18          B  0.8654680  0.0186161  0.1754066    0.00000       Uiso       1.00
       O28          O  0.7756466  0.6320441  0.8135332    0.00000       Uiso       1.00
       B19          B  0.8004030  0.6439927  0.8004107    0.00000       Uiso       1.00
       B20          B  0.8004030  0.6072876  0.7637056    0.00000       Uiso       1.00
       O29          O  0.8135256  0.6320441  0.7756543    0.00000       Uiso       1.00
       O30          O  0.7756467  0.5941647  0.7756539    0.00000       Uiso       1.00
       B21          B  0.7636983  0.6072875  0.8004103    0.00000       Uiso       1.00
      C661          C  0.3617540  0.1953800  0.8628725    0.00000       Uiso       1.00
      C662          C  0.3409214  0.1743943  0.8616171    0.00000       Uiso       1.00
      C663          C  0.3209265  0.1737272  0.8591772    0.00000       Uiso       1.00
      C664          C  0.2997392  0.1529862  0.8591881    0.00000       Uiso       1.00
      C665          C  0.2975168  0.1329248  0.8630300    0.00000       Uiso       1.00
      C666          C  0.3177603  0.1341452  0.8658226    0.00000       Uiso       1.00
      C667          C  0.3401046  0.1537539  0.8634208    0.00000       Uiso       1.00
       O31          O  0.3650970  0.2173854  0.8623463    0.00000       Uiso       1.00
       H67          H  0.3218174  0.1893913  0.8572378    0.00000       Uiso       1.00
       H68          H  0.2851571  0.1530758  0.8564289    0.00000       Uiso       1.00
       H69          H  0.3156595  0.1205107  0.8714498    0.00000       Uiso       1.00
      C668          C  0.3819472  0.0459088  0.8628080    0.00000       Uiso       1.00
      C669          C  0.3830523  0.0667360  0.8615381    0.00000       Uiso       1.00
      C670          C  0.4048151  0.0867387  0.8591102    0.00000       Uiso       1.00
      C671          C  0.4052442  0.1079268  0.8591284    0.00000       Uiso       1.00
      C672          C  0.3835613  0.1101458  0.8629716    0.00000       Uiso       1.00
      C673          C  0.3617535  0.0898878  0.8657401    0.00000       Uiso       1.00
      C674          C  0.3614278  0.0675430  0.8633282    0.00000       Uiso       1.00
       O32          O  0.4011297  0.0425834  0.8623150    0.00000       Uiso       1.00
       H70          H  0.4215266  0.0858610  0.8571870    0.00000       Uiso       1.00
       H71          H  0.4226721  0.1225140  0.8563813    0.00000       Uiso       1.00
       H72          H  0.3445881  0.0919744  0.8713654    0.00000       Uiso       1.00
      C675          C  0.2123308  0.0257548  0.8628303    0.00000       Uiso       1.00
      C676          C  0.2333264  0.0246445  0.8615413    0.00000       Uiso       1.00
      C677          C  0.2339977  0.0028702  0.8590794    0.00000       Uiso       1.00
      C678          C  0.2547468  0.0024254  0.8590670    0.00000       Uiso       1.00
      C679          C  0.2748112  0.0241045  0.8629069    0.00000       Uiso       1.00
      C680          C  0.2735904  0.0459260  0.8657084    0.00000       Uiso       1.00
      C681          C  0.2539681  0.0462692  0.8633378    0.00000       Uiso       1.00
       O33          O  0.1903268  0.0065647  0.8623083    0.00000       Uiso       1.00
       H73          H  0.2183229  0.9861648  0.8571534    0.00000       Uiso       1.00
       H74          H  0.2546566  0.9849920  0.8563021    0.00000       Uiso       1.00
       H75          H  0.2872303  0.0630854  0.8713268    0.00000       Uiso       1.00
      C682          C  0.2113334  0.0471908  0.8660048    0.00000       Uiso       1.00
      C683          C  0.2317423  0.0686417  0.8665864    0.00000       Uiso       1.00
      C684          C  0.2308154  0.0903723  0.8692443    0.00000       Uiso       1.00
      C685          C  0.2517139  0.1113998  0.8688522    0.00000       Uiso       1.00
      C686          C  0.2744310  0.1107850  0.8643770    0.00000       Uiso       1.00
      C687          C  0.2750657  0.0885219  0.8611920    0.00000       Uiso       1.00
      C688          C  0.2537537  0.0679591  0.8640410    0.00000       Uiso       1.00
       O34          O  0.1886008  0.0446223  0.8678145    0.00000       Uiso       1.00
       H76          H  0.2137568  0.0910056  0.8717231    0.00000       Uiso       1.00
       H77          H  0.2498016  0.1279371  0.8718866    0.00000       Uiso       1.00
       H78          H  0.2924672  0.0866537  0.8550434    0.00000       Uiso       1.00
      C689          C  0.3605193  0.0266308  0.8659407    0.00000       Uiso       1.00
      C690          C  0.3390757  0.0261636  0.8664995    0.00000       Uiso       1.00
      C691          C  0.3173561  0.0061429  0.8691048    0.00000       Uiso       1.00
      C692          C  0.2963373  0.0056211  0.8686964    0.00000       Uiso       1.00
      C693          C  0.2969461  0.0245023  0.8642622    0.00000       Uiso       1.00
      C694          C  0.3192002  0.0442340  0.8611264    0.00000       Uiso       1.00
      C695          C  0.3397526  0.0463280  0.8639876    0.00000       Uiso       1.00
       O35          O  0.3630884  0.0082730  0.8677430    0.00000       Uiso       1.00
       H79          H  0.3167210  0.9909176  0.8715662    0.00000       Uiso       1.00
       H80          H  0.2798093  0.9901870  0.8716941    0.00000       Uiso       1.00
       H81          H  0.3210804  0.0573747  0.8549956    0.00000       Uiso       1.00
      C696          C  0.3810300  0.1963596  0.8660075    0.00000       Uiso       1.00
      C697          C  0.3814867  0.1759466  0.8665826    0.00000       Uiso       1.00
      C698          C  0.4015105  0.1768537  0.8691807    0.00000       Uiso       1.00
      C699          C  0.4020376  0.1559495  0.8687688    0.00000       Uiso       1.00
      C700          C  0.3831497  0.1332424  0.8643474    0.00000       Uiso       1.00
      C701          C  0.3634063  0.1326306  0.8612291    0.00000       Uiso       1.00
      C702          C  0.3613161  0.1539509  0.8640845    0.00000       Uiso       1.00
       O36          O  0.3994029  0.2190787  0.8677830    0.00000       Uiso       1.00
       H82          H  0.4167379  0.1939071  0.8716325    0.00000       Uiso       1.00
       H83          H  0.4174824  0.1578555  0.8717508    0.00000       Uiso       1.00
       H84          H  0.3502565  0.1152381  0.8551106    0.00000       Uiso       1.00
       B22          B  0.3890727  0.2322926  0.8654705    0.00000       Uiso       1.00
       B23          B  0.3889396  0.0186141  0.8654521    0.00000       Uiso       1.00
       B24          B  0.1753997  0.0187594  0.8654750    0.00000       Uiso       1.00
