data_94
_audit_creation_date              0000-00-00
_audit_creation_method            'LanYouShi'
_symmetry_space_group_name_H-M    'P1'
_cell_length_a                    74.4260025
_cell_length_b                    74.4260025
_cell_length_c                    74.4259033
_cell_angle_alpha                 120.0000000
_cell_angle_beta                  60.0000000
_cell_angle_gamma                 120.0000000
loop_
_atom_site_label
_atom_site_type_symbol
_atom_site_fract_x
_atom_site_fract_y
_atom_site_fract_z
_atom_site_U_iso_or_equiv
_atom_site_adp_type
_atom_site_occupancy
        C1          C  0.4600286  0.5846666  0.7124513    0.00000       Uiso       1.00
        C2          C  0.4616449  0.5635738  0.7010239    0.00000       Uiso       1.00
        C3          C  0.4651775  0.5538849  0.6781110    0.00000       Uiso       1.00
        C4          C  0.4616449  0.5959482  0.7010239    0.00000       Uiso       1.00
        C5          C  0.4650363  0.5862825  0.6781849    0.00000       Uiso       1.00
        C6          C  0.4670031  0.5650475  0.6661289    0.00000       Uiso       1.00
        C7          C  0.4116400  0.2838623  0.4116468    0.00000       Uiso       1.00
        C8          C  0.4003584  0.2952897  0.4327396    0.00000       Uiso       1.00
        C9          C  0.4100236  0.3181286  0.4425217    0.00000       Uiso       1.00
       C10          C  0.4327329  0.2952897  0.4003651    0.00000       Uiso       1.00
       C11          C  0.4424214  0.3182026  0.4100566    0.00000       Uiso       1.00
       C12          C  0.4312577  0.3301837  0.4313753    0.00000       Uiso       1.00
       C13          C  0.4116402  0.5362780  0.4116469    0.00000       Uiso       1.00
       C14          C  0.4327330  0.5346618  0.4003652    0.00000       Uiso       1.00
       C15          C  0.4425139  0.5312674  0.4100292    0.00000       Uiso       1.00
       C16          C  0.4003586  0.5346618  0.4327397    0.00000       Uiso       1.00
       C17          C  0.4100482  0.5311254  0.4424270    0.00000       Uiso       1.00
       C18          C  0.4313667  0.5292972  0.4312623    0.00000       Uiso       1.00
       C19          C  0.7124441  0.5846664  0.4600354    0.00000       Uiso       1.00
       C20          C  0.7010167  0.5959481  0.4616517    0.00000       Uiso       1.00
       C21          C  0.6781039  0.5862566  0.4651840    0.00000       Uiso       1.00
       C22          C  0.7010167  0.5635737  0.4616517    0.00000       Uiso       1.00
       C23          C  0.6781779  0.5537915  0.4650423    0.00000       Uiso       1.00
       C24          C  0.6661224  0.5649374  0.4670089    0.00000       Uiso       1.00
       C25          C  0.4989362  0.4973656  0.4989445    0.00000       Uiso       1.00
        F1          F  0.4598978  0.5512111  0.7128823    0.00000       Uiso       1.00
        F2          F  0.7128751  0.6184222  0.4599046    0.00000       Uiso       1.00
        F3          F  0.3778844  0.2834314  0.4451024    0.00000       Uiso       1.00
        F4          F  0.4450957  0.5364087  0.3778911    0.00000       Uiso       1.00
        F5          F  0.4598979  0.6184223  0.7128822    0.00000       Uiso       1.00
        F6          F  0.4450955  0.2834313  0.3778911    0.00000       Uiso       1.00
        F7          F  0.3778845  0.5364088  0.4451024    0.00000       Uiso       1.00
        F8          F  0.7128751  0.5512109  0.4599046    0.00000       Uiso       1.00
        F9          F  0.4675228  0.5316708  0.6665538    0.00000       Uiso       1.00
       F10          F  0.4661260  0.5988948  0.6669912    0.00000       Uiso       1.00
       F11          F  0.6669845  0.5310753  0.4661324    0.00000       Uiso       1.00
       F12          F  0.6665466  0.5992604  0.4675324    0.00000       Uiso       1.00
       F13          F  0.3974101  0.3293219  0.4652376    0.00000       Uiso       1.00
       F14          F  0.4646349  0.3297580  0.3970520    0.00000       Uiso       1.00
       F15          F  0.3970385  0.5287752  0.4646387    0.00000       Uiso       1.00
       F16          F  0.4652282  0.5301721  0.3974153    0.00000       Uiso       1.00
       C26          C  0.4710402  0.5548093  0.6413825    0.00000       Uiso       1.00
       C27          C  0.4626557  0.5317538  0.6311306    0.00000       Uiso       1.00
       C28          C  0.4665109  0.5222154  0.6081320    0.00000       Uiso       1.00
       C29          C  0.4833832  0.5680373  0.6277103    0.00000       Uiso       1.00
       C30          C  0.4871746  0.5587205  0.6047446    0.00000       Uiso       1.00
       C31          C  0.4787590  0.5357341  0.5948927    0.00000       Uiso       1.00
       C32          C  0.4414934  0.3549286  0.4418468    0.00000       Uiso       1.00
       C33          C  0.4282649  0.3686008  0.4563963    0.00000       Uiso       1.00
       C34          C  0.4375804  0.3915661  0.4662550    0.00000       Uiso       1.00
       C35          C  0.4645471  0.3651795  0.4374374    0.00000       Uiso       1.00
       C36          C  0.4740832  0.3881765  0.4470434    0.00000       Uiso       1.00
       C37          C  0.4605657  0.4014163  0.4615445    0.00000       Uiso       1.00
        H1          H  0.4751588  0.3552459  0.4267214    0.00000       Uiso       1.00
        H2          H  0.4106501  0.3614901  0.4598370    0.00000       Uiso       1.00
       C38          C  0.4418384  0.5252564  0.4414961    0.00000       Uiso       1.00
       C39          C  0.4563961  0.5129129  0.4282649    0.00000       Uiso       1.00
       C40          C  0.4662567  0.5091212  0.4375805    0.00000       Uiso       1.00
       C41          C  0.4374212  0.5336413  0.4645506    0.00000       Uiso       1.00
       C42          C  0.4470262  0.5297852  0.4740864    0.00000       Uiso       1.00
       C43          C  0.4615366  0.5175379  0.4605693    0.00000       Uiso       1.00
       C44          C  0.6413763  0.5544662  0.4710461    0.00000       Uiso       1.00
       C45          C  0.6311253  0.5588782  0.4626546    0.00000       Uiso       1.00
       C46          C  0.6081268  0.5492751  0.4665118    0.00000       Uiso       1.00
       C47          C  0.6277038  0.5399154  0.4833953    0.00000       Uiso       1.00
       C48          C  0.6047383  0.5300573  0.4871862    0.00000       Uiso       1.00
       C49          C  0.5948871  0.5347716  0.4787661    0.00000       Uiso       1.00
       C50          C  0.5980459  0.5539526  0.4583659    0.00000       Uiso       1.00
       C51          C  0.5751826  0.5446023  0.4625104    0.00000       Uiso       1.00
       C52          C  0.4969879  0.3982565  0.4423711    0.00000       Uiso       1.00
       C53          C  0.5063564  0.4211189  0.4517238    0.00000       Uiso       1.00
       F17          F  0.5307252  0.4310688  0.4460633    0.00000       Uiso       1.00
       F18          F  0.5117490  0.3847604  0.4271648    0.00000       Uiso       1.00
       F19          F  0.6115468  0.5691605  0.4453165    0.00000       Uiso       1.00
       F20          F  0.5652273  0.5502641  0.4537587    0.00000       Uiso       1.00
       F21          F  0.4611381  0.5031967  0.4040037    0.00000       Uiso       1.00
       F22          F  0.4226570  0.5471682  0.4791654    0.00000       Uiso       1.00
       F23          F  0.6448144  0.5736354  0.4491200    0.00000       Uiso       1.00
       F24          F  0.6374991  0.5351741  0.4931198    0.00000       Uiso       1.00
       F25          F  0.4931026  0.5922993  0.6375046    0.00000       Uiso       1.00
       F26          F  0.4491320  0.5171464  0.6448144    0.00000       Uiso       1.00
       C54          C  0.4827461  0.5262418  0.5717352    0.00000       Uiso       1.00
       C55          C  0.4747167  0.5032373  0.5617963    0.00000       Uiso       1.00
       C56          C  0.4792711  0.4938434  0.5386912    0.00000       Uiso       1.00
       C57          C  0.4950515  0.5397519  0.5585154    0.00000       Uiso       1.00
       C58          C  0.4992364  0.5302094  0.5355168    0.00000       Uiso       1.00
       C59          C  0.4914438  0.5070782  0.5249489    0.00000       Uiso       1.00
       C60          C  0.4700584  0.4245729  0.4712229    0.00000       Uiso       1.00
       C61          C  0.4565485  0.4377944  0.4856411    0.00000       Uiso       1.00
       C62          C  0.4660909  0.4607938  0.4949139    0.00000       Uiso       1.00
       C63          C  0.4930634  0.4345112  0.4661955    0.00000       Uiso       1.00
       C64          C  0.5024571  0.4576170  0.4753515    0.00000       Uiso       1.00
       C65          C  0.4892226  0.4713609  0.4901467    0.00000       Uiso       1.00
       C66          C  0.4712131  0.5135546  0.4700650    0.00000       Uiso       1.00
       C67          C  0.4856404  0.5012510  0.4565546    0.00000       Uiso       1.00
       C68          C  0.4949117  0.4970674  0.4660988    0.00000       Uiso       1.00
       C69          C  0.4661747  0.5215846  0.4930716    0.00000       Uiso       1.00
       C70          C  0.4753291  0.5170285  0.5024670    0.00000       Uiso       1.00
       C71          C  0.4901360  0.5048574  0.4892317    0.00000       Uiso       1.00
       C72          C  0.5717300  0.5250935  0.4827532    0.00000       Uiso       1.00
       C73          C  0.5617903  0.5301266  0.4747199    0.00000       Uiso       1.00
       C74          C  0.5386832  0.5209699  0.4792770    0.00000       Uiso       1.00
       C75          C  0.5585098  0.5106685  0.4950596    0.00000       Uiso       1.00
       C76          C  0.5355105  0.5013937  0.4992425    0.00000       Uiso       1.00
       C77          C  0.5249414  0.5061663  0.4914519    0.00000       Uiso       1.00
       C78          C  0.4516935  0.5337884  0.5063645    0.00000       Uiso       1.00
       C79          C  0.4423429  0.5379300  0.4969937    0.00000       Uiso       1.00
       C80          C  0.4902862  0.4930243  0.4336563    0.00000       Uiso       1.00
       C81          C  0.4806980  0.4968828  0.4242975    0.00000       Uiso       1.00
       C82          C  0.4625129  0.4899428  0.5751873    0.00000       Uiso       1.00
       C83          C  0.4583701  0.4993102  0.5980509    0.00000       Uiso       1.00
       C84          C  0.5032765  0.5626510  0.5685423    0.00000       Uiso       1.00
       C85          C  0.4994128  0.5720077  0.5913507    0.00000       Uiso       1.00
       C86          C  0.5685369  0.5060248  0.5032872    0.00000       Uiso       1.00
       C87          C  0.5913436  0.5156167  0.4994268    0.00000       Uiso       1.00
       C88          C  0.4336502  0.4277684  0.4902792    0.00000       Uiso       1.00
       C89          C  0.4242942  0.4049613  0.4806902    0.00000       Uiso       1.00
       F27          F  0.4859970  0.4877172  0.3999641    0.00000       Uiso       1.00
       F28          F  0.5053800  0.4798517  0.4189094    0.00000       Uiso       1.00
       F29          F  0.4460219  0.5425351  0.5307343    0.00000       Uiso       1.00
       F30          F  0.4271265  0.5509699  0.5117534    0.00000       Uiso       1.00
       F31          F  0.5164492  0.5774012  0.5550261    0.00000       Uiso       1.00
       F32          F  0.5085722  0.5963406  0.6012268    0.00000       Uiso       1.00
       F33          F  0.4537661  0.4655730  0.5652358    0.00000       Uiso       1.00
       F34          F  0.4453306  0.4845557  0.6115530    0.00000       Uiso       1.00
       F35          F  0.3999619  0.3950914  0.4859803    0.00000       Uiso       1.00
       F36          F  0.4189042  0.4412896  0.5053636    0.00000       Uiso       1.00
       F37          F  0.6012155  0.5103204  0.5085917    0.00000       Uiso       1.00
       F38          F  0.5550175  0.4909287  0.5164574    0.00000       Uiso       1.00
       F39          F  0.5096561  0.4835190  0.4515068    0.00000       Uiso       1.00
       F40          F  0.4682697  0.5246543  0.5269235    0.00000       Uiso       1.00
       F41          F  0.5218167  0.4866463  0.5127874    0.00000       Uiso       1.00
       F42          F  0.5289068  0.5280100  0.4716376    0.00000       Uiso       1.00
       F43          F  0.4514959  0.4744922  0.5096378    0.00000       Uiso       1.00
       F44          F  0.5269134  0.4673886  0.4683083    0.00000       Uiso       1.00
       F45          F  0.5127962  0.5448060  0.5218203    0.00000       Uiso       1.00
       F46          F  0.4716407  0.4693871  0.5289183    0.00000       Uiso       1.00
       C90          C  0.8827729  0.5846665  0.7124513    0.00000       Uiso       1.00
       C91          C  0.9038658  0.5959482  0.7010239    0.00000       Uiso       1.00
       C92          C  0.9135546  0.5862567  0.6781110    0.00000       Uiso       1.00
       C93          C  0.8714913  0.5635737  0.7010239    0.00000       Uiso       1.00
       C94          C  0.8811570  0.5537919  0.6781850    0.00000       Uiso       1.00
       C95          C  0.9023920  0.5649378  0.6661290    0.00000       Uiso       1.00
       C96          C  0.1835777  0.5362781  0.4116469    0.00000       Uiso       1.00
       C97          C  0.1721503  0.5346618  0.4327397    0.00000       Uiso       1.00
       C98          C  0.1493115  0.5312701  0.4425217    0.00000       Uiso       1.00
       C99          C  0.1721503  0.5346618  0.4003652    0.00000       Uiso       1.00
      C100          C  0.1492374  0.5311289  0.4100567    0.00000       Uiso       1.00
      C101          C  0.1372564  0.5293028  0.4313754    0.00000       Uiso       1.00
      C102          C  0.9311613  0.2838626  0.4116470    0.00000       Uiso       1.00
      C103          C  0.9327776  0.2952900  0.4003654    0.00000       Uiso       1.00
      C104          C  0.9361720  0.3181292  0.4100293    0.00000       Uiso       1.00
      C105          C  0.9327776  0.2952900  0.4327399    0.00000       Uiso       1.00
      C106          C  0.9363140  0.3182033  0.4424271    0.00000       Uiso       1.00
      C107          C  0.9381422  0.3301853  0.4312624    0.00000       Uiso       1.00
      C108          C  0.8827730  0.5846664  0.4600354    0.00000       Uiso       1.00
      C109          C  0.8714913  0.5635737  0.4616517    0.00000       Uiso       1.00
      C110          C  0.8811828  0.5538847  0.4651840    0.00000       Uiso       1.00
      C111          C  0.9038658  0.5959481  0.4616517    0.00000       Uiso       1.00
      C112          C  0.9136479  0.5862821  0.4650423    0.00000       Uiso       1.00
      C113          C  0.9025021  0.5650473  0.4670089    0.00000       Uiso       1.00
      C114          C  0.9700739  0.4973685  0.4989445    0.00000       Uiso       1.00
       F47          F  0.9162285  0.6184222  0.7128823    0.00000       Uiso       1.00
       F48          F  0.8490173  0.5512110  0.4599047    0.00000       Uiso       1.00
       F49          F  0.1840087  0.5364088  0.4451024    0.00000       Uiso       1.00
       F50          F  0.9310306  0.2834316  0.3778912    0.00000       Uiso       1.00
       F51          F  0.8490173  0.5512110  0.7128823    0.00000       Uiso       1.00
       F52          F  0.1840087  0.5364088  0.3778911    0.00000       Uiso       1.00
       F53          F  0.9310306  0.2834316  0.4451025    0.00000       Uiso       1.00
       F54          F  0.9162285  0.6184222  0.4599046    0.00000       Uiso       1.00
       F55          F  0.9357687  0.5992590  0.6665538    0.00000       Uiso       1.00
       F56          F  0.8685446  0.5310755  0.6669912    0.00000       Uiso       1.00
       F57          F  0.9363642  0.5988950  0.4661324    0.00000       Uiso       1.00
       F58          F  0.8681790  0.5316719  0.4675324    0.00000       Uiso       1.00
       F59          F  0.1381181  0.5301791  0.4652376    0.00000       Uiso       1.00
       F60          F  0.1376820  0.5287824  0.3970520    0.00000       Uiso       1.00
       F61          F  0.9386642  0.3297555  0.4646389    0.00000       Uiso       1.00
       F62          F  0.9372673  0.3293248  0.3974154    0.00000       Uiso       1.00
      C115          C  0.9126301  0.5544665  0.6413825    0.00000       Uiso       1.00
      C116          C  0.9356858  0.5588858  0.6311306    0.00000       Uiso       1.00
      C117          C  0.9452240  0.5492808  0.6081321    0.00000       Uiso       1.00
      C118          C  0.8994023  0.5399095  0.6277103    0.00000       Uiso       1.00
      C119          C  0.9087189  0.5300519  0.6047447    0.00000       Uiso       1.00
      C120          C  0.9317055  0.5347709  0.5948927    0.00000       Uiso       1.00
      C121          C  0.1125114  0.5252650  0.4418469    0.00000       Uiso       1.00
      C122          C  0.0988392  0.5129138  0.4563963    0.00000       Uiso       1.00
      C123          C  0.0758739  0.5091227  0.4662550    0.00000       Uiso       1.00
      C124          C  0.1022606  0.5336584  0.4374375    0.00000       Uiso       1.00
      C125          C  0.0792636  0.5298036  0.4470435    0.00000       Uiso       1.00
      C126          C  0.0660237  0.5175472  0.4615445    0.00000       Uiso       1.00
        H3          H  0.1121941  0.5434877  0.4267215    0.00000       Uiso       1.00
        H4          H  0.1059499  0.5058504  0.4598370    0.00000       Uiso       1.00
      C127          C  0.9421830  0.3549316  0.4414963    0.00000       Uiso       1.00
      C128          C  0.9545266  0.3686016  0.4282650    0.00000       Uiso       1.00
      C129          C  0.9583183  0.3915695  0.4375806    0.00000       Uiso       1.00
      C130          C  0.9337982  0.3651839  0.4645507    0.00000       Uiso       1.00
      C131          C  0.9376543  0.3881809  0.4740865    0.00000       Uiso       1.00
      C132          C  0.9499015  0.4014214  0.4605694    0.00000       Uiso       1.00
      C133          C  0.9129733  0.5548096  0.4710461    0.00000       Uiso       1.00
      C134          C  0.9085613  0.5317551  0.4626547    0.00000       Uiso       1.00
      C135          C  0.9181644  0.5222169  0.4665118    0.00000       Uiso       1.00
      C136          C  0.9275240  0.5680371  0.4833954    0.00000       Uiso       1.00
      C137          C  0.9373822  0.5587205  0.4871862    0.00000       Uiso       1.00
      C138          C  0.9326679  0.5357351  0.4787661    0.00000       Uiso       1.00
      C139          C  0.9134868  0.4993127  0.4583660    0.00000       Uiso       1.00
      C140          C  0.9228372  0.4899441  0.4625104    0.00000       Uiso       1.00
      C141          C  0.0691835  0.5379560  0.4423712    0.00000       Uiso       1.00
      C142          C  0.0463212  0.5338147  0.4517238    0.00000       Uiso       1.00
       F63          F  0.0363713  0.5425732  0.4460633    0.00000       Uiso       1.00
       F64          F  0.0826797  0.5510069  0.4271648    0.00000       Uiso       1.00
       F65          F  0.8982790  0.4845563  0.4453166    0.00000       Uiso       1.00
       F66          F  0.9171754  0.4655754  0.4537588    0.00000       Uiso       1.00
       F67          F  0.9642427  0.3587986  0.4040038    0.00000       Uiso       1.00
       F68          F  0.9202712  0.3515076  0.4791655    0.00000       Uiso       1.00
       F69          F  0.8938041  0.5171524  0.4491201    0.00000       Uiso       1.00
       F70          F  0.9322654  0.5922982  0.4931198    0.00000       Uiso       1.00
       F71          F  0.8751401  0.5351611  0.6375047    0.00000       Uiso       1.00
       F72          F  0.9502931  0.5736532  0.6448144    0.00000       Uiso       1.00
      C143          C  0.9411976  0.5250927  0.5717353    0.00000       Uiso       1.00
      C144          C  0.9642022  0.5301290  0.5617964    0.00000       Uiso       1.00
      C145          C  0.9735960  0.5209721  0.5386912    0.00000       Uiso       1.00
      C146          C  0.9276875  0.5106683  0.5585154    0.00000       Uiso       1.00
      C147          C  0.9372301  0.5013971  0.5355169    0.00000       Uiso       1.00
      C148          C  0.9603614  0.5061679  0.5249490    0.00000       Uiso       1.00
      C149          C  0.0428672  0.5135618  0.4712230    0.00000       Uiso       1.00
      C150          C  0.0296457  0.5012487  0.4856411    0.00000       Uiso       1.00
      C151          C  0.0066463  0.4970644  0.4949140    0.00000       Uiso       1.00
      C152          C  0.0329289  0.5216011  0.4661956    0.00000       Uiso       1.00
      C153          C  0.0098230  0.5170450  0.4753515    0.00000       Uiso       1.00
      C154          C  0.9960786  0.5048618  0.4901467    0.00000       Uiso       1.00
      C155          C  0.9538848  0.4245770  0.4700651    0.00000       Uiso       1.00
      C156          C  0.9661885  0.4377974  0.4565546    0.00000       Uiso       1.00
      C157          C  0.9703721  0.4607965  0.4660988    0.00000       Uiso       1.00
      C158          C  0.9458548  0.4345150  0.4930717    0.00000       Uiso       1.00
      C159          C  0.9504110  0.4576209  0.5024670    0.00000       Uiso       1.00
      C160          C  0.9625821  0.4713637  0.4892318    0.00000       Uiso       1.00
      C161          C  0.9423459  0.5262430  0.4827532    0.00000       Uiso       1.00
      C162          C  0.9373128  0.5032371  0.4747200    0.00000       Uiso       1.00
      C163          C  0.9464695  0.4938436  0.4792770    0.00000       Uiso       1.00
      C164          C  0.9567709  0.5397543  0.4950596    0.00000       Uiso       1.00
      C165          C  0.9660457  0.5302126  0.4992425    0.00000       Uiso       1.00
      C166          C  0.9612731  0.5070803  0.4914519    0.00000       Uiso       1.00
      C167          C  0.9336509  0.4211229  0.5063646    0.00000       Uiso       1.00
      C168          C  0.9295095  0.3982601  0.4969938    0.00000       Uiso       1.00
      C169          C  0.9744151  0.4277716  0.4336563    0.00000       Uiso       1.00
      C170          C  0.9705567  0.4049662  0.4242975    0.00000       Uiso       1.00
      C171          C  0.9774967  0.5446107  0.5751873    0.00000       Uiso       1.00
      C172          C  0.9681292  0.5539640  0.5980510    0.00000       Uiso       1.00
      C173          C  0.9047884  0.5060211  0.5685424    0.00000       Uiso       1.00
      C174          C  0.8954318  0.5156091  0.5913507    0.00000       Uiso       1.00
      C175          C  0.9614146  0.5626527  0.5032873    0.00000       Uiso       1.00
      C176          C  0.9518228  0.5720071  0.4994268    0.00000       Uiso       1.00
      C177          C  0.0396716  0.4930143  0.4902792    0.00000       Uiso       1.00
      C178          C  0.0624787  0.4968764  0.4806902    0.00000       Uiso       1.00
       F73          F  0.9797222  0.3950974  0.3999642    0.00000       Uiso       1.00
       F74          F  0.9875877  0.4412912  0.4189095    0.00000       Uiso       1.00
       F75          F  0.9249044  0.4310745  0.5307344    0.00000       Uiso       1.00
       F76          F  0.9164695  0.3847633  0.5117534    0.00000       Uiso       1.00
       F77          F  0.8900383  0.4909275  0.5550262    0.00000       Uiso       1.00
       F78          F  0.8710988  0.5103117  0.6012269    0.00000       Uiso       1.00
       F79          F  0.0018670  0.5502822  0.5652359    0.00000       Uiso       1.00
       F80          F  0.9828838  0.5691811  0.6115531    0.00000       Uiso       1.00
       F81          F  0.0723487  0.4877042  0.4859803    0.00000       Uiso       1.00
       F82          F  0.0261505  0.4798315  0.5053636    0.00000       Uiso       1.00
       F83          F  0.9571190  0.5963401  0.5085917    0.00000       Uiso       1.00
       F84          F  0.9765108  0.5773996  0.5164574    0.00000       Uiso       1.00
       F85          F  0.9839204  0.4744973  0.4515069    0.00000       Uiso       1.00
       F86          F  0.9427851  0.4673924  0.5269236    0.00000       Uiso       1.00
       F87          F  0.9807931  0.5448112  0.5127875    0.00000       Uiso       1.00
       F88          F  0.9394295  0.4693877  0.4716377    0.00000       Uiso       1.00
       F89          F  0.9929473  0.4834948  0.5096378    0.00000       Uiso       1.00
       F90          F  0.0000515  0.5246865  0.4683084    0.00000       Uiso       1.00
       F91          F  0.9226335  0.4866638  0.5218204    0.00000       Uiso       1.00
       F92          F  0.9980524  0.5280253  0.5289184    0.00000       Uiso       1.00
      C179          C  0.8827731  0.0074115  0.7124512    0.00000       Uiso       1.00
      C180          C  0.8714913  0.0057952  0.7010238    0.00000       Uiso       1.00
      C181          C  0.8811828  0.0022626  0.6781109    0.00000       Uiso       1.00
      C182          C  0.9038659  0.0057952  0.7010238    0.00000       Uiso       1.00
      C183          C  0.9136477  0.0024038  0.6781849    0.00000       Uiso       1.00
      C184          C  0.9025018  0.0004370  0.6661289    0.00000       Uiso       1.00
      C185          C  0.9311615  0.0557999  0.4116467    0.00000       Uiso       1.00
      C186          C  0.9327778  0.0670816  0.4327395    0.00000       Uiso       1.00
      C187          C  0.9361694  0.0574165  0.4425215    0.00000       Uiso       1.00
      C188          C  0.9327778  0.0347072  0.4003650    0.00000       Uiso       1.00
      C189          C  0.9363106  0.0250186  0.4100565    0.00000       Uiso       1.00
      C190          C  0.9381368  0.0361823  0.4313752    0.00000       Uiso       1.00
      C191          C  0.1835775  0.0557998  0.4116469    0.00000       Uiso       1.00
      C192          C  0.1721501  0.0347070  0.4003652    0.00000       Uiso       1.00
      C193          C  0.1493110  0.0249262  0.4100291    0.00000       Uiso       1.00
      C194          C  0.1721501  0.0670815  0.4327397    0.00000       Uiso       1.00
      C195          C  0.1492368  0.0573918  0.4424269    0.00000       Uiso       1.00
      C196          C  0.1372548  0.0360733  0.4312623    0.00000       Uiso       1.00
      C197          C  0.8827730  0.7549954  0.4600354    0.00000       Uiso       1.00
      C198          C  0.9038658  0.7664228  0.4616517    0.00000       Uiso       1.00
      C199          C  0.9135548  0.7893355  0.4651840    0.00000       Uiso       1.00
      C200          C  0.8714914  0.7664227  0.4616516    0.00000       Uiso       1.00
      C201          C  0.8811573  0.7892616  0.4650423    0.00000       Uiso       1.00
      C202          C  0.9023922  0.8013171  0.4670089    0.00000       Uiso       1.00
      C203          C  0.9700711  0.9685033  0.4989444    0.00000       Uiso       1.00
       F93          F  0.8490173  0.0075422  0.7128822    0.00000       Uiso       1.00
       F94          F  0.9162285  0.7545644  0.4599046    0.00000       Uiso       1.00
       F95          F  0.9310307  0.0895557  0.4451022    0.00000       Uiso       1.00
       F96          F  0.1840085  0.0223443  0.3778911    0.00000       Uiso       1.00
       F97          F  0.9162285  0.0075422  0.7128822    0.00000       Uiso       1.00
       F98          F  0.9310307  0.0223445  0.3778910    0.00000       Uiso       1.00
       F99          F  0.1840085  0.0895555  0.4451024    0.00000       Uiso       1.00
      F100          F  0.8490173  0.7545644  0.4599046    0.00000       Uiso       1.00
      F101          F  0.8681806  0.9999167  0.6665537    0.00000       Uiso       1.00
      F102          F  0.9363641  0.0013141  0.6669911    0.00000       Uiso       1.00
      F103          F  0.8685445  0.8004550  0.4661323    0.00000       Uiso       1.00
      F104          F  0.9357675  0.8008929  0.4675324    0.00000       Uiso       1.00
      F105          F  0.9372604  0.0700300  0.4652374    0.00000       Uiso       1.00
      F106          F  0.9386572  0.0028051  0.3970519    0.00000       Uiso       1.00
      F107          F  0.1376846  0.0704015  0.4646387    0.00000       Uiso       1.00
      F108          F  0.1381153  0.0022119  0.3974152    0.00000       Uiso       1.00
      C204          C  0.9129730  0.9963993  0.6413825    0.00000       Uiso       1.00
      C205          C  0.9085538  0.0047843  0.6311305    0.00000       Uiso       1.00
      C206          C  0.9181588  0.0009292  0.6081319    0.00000       Uiso       1.00
      C207          C  0.9275301  0.9840562  0.6277103    0.00000       Uiso       1.00
      C208          C  0.9373876  0.9802649  0.6047446    0.00000       Uiso       1.00
      C209          C  0.9326686  0.9886805  0.5948926    0.00000       Uiso       1.00
      C210          C  0.9421746  0.0259467  0.4418467    0.00000       Uiso       1.00
      C211          C  0.9545258  0.0391752  0.4563962    0.00000       Uiso       1.00
      C212          C  0.9583169  0.0298597  0.4662549    0.00000       Uiso       1.00
      C213          C  0.9337811  0.0028930  0.4374373    0.00000       Uiso       1.00
      C214          C  0.9376360  0.9933562  0.4470434    0.00000       Uiso       1.00
      C215          C  0.9498922  0.0068744  0.4615444    0.00000       Uiso       1.00
        H5          H  0.9239518  0.9922807  0.4267213    0.00000       Uiso       1.00
        H6          H  0.9615890  0.0567899  0.4598369    0.00000       Uiso       1.00
      C216          C  0.1125085  0.0256017  0.4414961    0.00000       Uiso       1.00
      C217          C  0.0988385  0.0110440  0.4282649    0.00000       Uiso       1.00
      C218          C  0.0758707  0.0011834  0.4375804    0.00000       Uiso       1.00
      C219          C  0.1022562  0.0300189  0.4645506    0.00000       Uiso       1.00
      C220          C  0.0792593  0.0204138  0.4740863    0.00000       Uiso       1.00
      C221          C  0.0660187  0.0059035  0.4605692    0.00000       Uiso       1.00
      C222          C  0.9126299  0.8260632  0.4710461    0.00000       Uiso       1.00
      C223          C  0.9356844  0.8363141  0.4626546    0.00000       Uiso       1.00
      C224          C  0.9452226  0.8593127  0.4665117    0.00000       Uiso       1.00
      C225          C  0.8994024  0.8397356  0.4833953    0.00000       Uiso       1.00
      C226          C  0.9087190  0.8627012  0.4871861    0.00000       Uiso       1.00
      C227          C  0.9317043  0.8725523  0.4787661    0.00000       Uiso       1.00
      C228          C  0.9681268  0.8693935  0.4583659    0.00000       Uiso       1.00
      C229          C  0.9774954  0.8922569  0.4625103    0.00000       Uiso       1.00
      C230          C  0.9294835  0.9704515  0.4423710    0.00000       Uiso       1.00
      C231          C  0.9336247  0.9610830  0.4517237    0.00000       Uiso       1.00
      F109          F  0.9248663  0.9367142  0.4460632    0.00000       Uiso       1.00
      F110          F  0.9164327  0.9556904  0.4271647    0.00000       Uiso       1.00
      F111          F  0.9828833  0.8558927  0.4453164    0.00000       Uiso       1.00
      F112          F  0.0018647  0.9022123  0.4537587    0.00000       Uiso       1.00
      F113          F  0.1086415  0.0063019  0.4040037    0.00000       Uiso       1.00
      F114          F  0.1159325  0.0447830  0.4791654    0.00000       Uiso       1.00
      F115          F  0.9502870  0.8226250  0.4491200    0.00000       Uiso       1.00
      F116          F  0.8751413  0.8299404  0.4931197    0.00000       Uiso       1.00
      F117          F  0.9322785  0.9743369  0.6375046    0.00000       Uiso       1.00
      F118          F  0.8937864  0.0183081  0.6448143    0.00000       Uiso       1.00
      C232          C  0.9423468  0.9846934  0.5717352    0.00000       Uiso       1.00
      C233          C  0.9373106  0.9927228  0.5617962    0.00000       Uiso       1.00
      C234          C  0.9464674  0.9881684  0.5386911    0.00000       Uiso       1.00
      C235          C  0.9567713  0.9723880  0.5585153    0.00000       Uiso       1.00
      C236          C  0.9660424  0.9682031  0.5355167    0.00000       Uiso       1.00
      C237          C  0.9612716  0.9759957  0.5249488    0.00000       Uiso       1.00
      C238          C  0.9538776  0.9973811  0.4712228    0.00000       Uiso       1.00
      C239          C  0.9661909  0.0108915  0.4856410    0.00000       Uiso       1.00
      C240          C  0.9703751  0.0013491  0.4949138    0.00000       Uiso       1.00
      C241          C  0.9458383  0.9743760  0.4661955    0.00000       Uiso       1.00
      C242          C  0.9503946  0.9649823  0.4753514    0.00000       Uiso       1.00
      C243          C  0.9625777  0.9782168  0.4901465    0.00000       Uiso       1.00
      C244          C  0.0428631  0.9962264  0.4700649    0.00000       Uiso       1.00
      C245          C  0.0296427  0.9817990  0.4565545    0.00000       Uiso       1.00
      C246          C  0.0066436  0.9725277  0.4660988    0.00000       Uiso       1.00
      C247          C  0.0329251  0.0012654  0.4930716    0.00000       Uiso       1.00
      C248          C  0.0098192  0.9921103  0.5024669    0.00000       Uiso       1.00
      C249          C  0.9960759  0.9773036  0.4892316    0.00000       Uiso       1.00
      C250          C  0.9411964  0.8957095  0.4827532    0.00000       Uiso       1.00
      C251          C  0.9642025  0.9056491  0.4747199    0.00000       Uiso       1.00
      C252          C  0.9735959  0.9287562  0.4792769    0.00000       Uiso       1.00
      C253          C  0.9276853  0.9089296  0.4950595    0.00000       Uiso       1.00
      C254          C  0.9372270  0.9319289  0.4992424    0.00000       Uiso       1.00
      C255          C  0.9603592  0.9424981  0.4914519    0.00000       Uiso       1.00
      C256          C  0.0463172  0.0157466  0.5063645    0.00000       Uiso       1.00
      C257          C  0.0691801  0.0250971  0.4969937    0.00000       Uiso       1.00
      C258          C  0.0396685  0.9771532  0.4336562    0.00000       Uiso       1.00
      C259          C  0.0624739  0.9867414  0.4242974    0.00000       Uiso       1.00
      C260          C  0.9228289  0.0049272  0.5751872    0.00000       Uiso       1.00
      C261          C  0.9134755  0.0090700  0.5980508    0.00000       Uiso       1.00
      C262          C  0.9614184  0.9641629  0.5685422    0.00000       Uiso       1.00
      C263          C  0.9518304  0.9680266  0.5913506    0.00000       Uiso       1.00
      C264          C  0.9047868  0.8989025  0.5032871    0.00000       Uiso       1.00
      C265          C  0.8954324  0.8760958  0.4994267    0.00000       Uiso       1.00
      C266          C  0.9744253  0.0337899  0.4902791    0.00000       Uiso       1.00
      C267          C  0.9705631  0.0431459  0.4806901    0.00000       Uiso       1.00
      F119          F  0.0723427  0.9814425  0.3999641    0.00000       Uiso       1.00
      F120          F  0.0261489  0.9620594  0.4189094    0.00000       Uiso       1.00
      F121          F  0.0363656  0.0214182  0.5307343    0.00000       Uiso       1.00
      F122          F  0.0826768  0.0403136  0.5117533    0.00000       Uiso       1.00
      F123          F  0.9765121  0.9509902  0.5550261    0.00000       Uiso       1.00
      F124          F  0.9571278  0.9588673  0.6012268    0.00000       Uiso       1.00
      F125          F  0.9171573  0.0136739  0.5652357    0.00000       Uiso       1.00
      F126          F  0.8982584  0.0221095  0.6115529    0.00000       Uiso       1.00
      F127          F  0.9797354  0.0674782  0.4859802    0.00000       Uiso       1.00
      F128          F  0.9876080  0.0485359  0.5053635    0.00000       Uiso       1.00
      F129          F  0.8710995  0.8662239  0.5085916    0.00000       Uiso       1.00
      F130          F  0.8900400  0.9124219  0.5164574    0.00000       Uiso       1.00
      F131          F  0.9929422  0.9577833  0.4515068    0.00000       Uiso       1.00
      F132          F  0.0000478  0.9991697  0.5269235    0.00000       Uiso       1.00
      F133          F  0.9226283  0.9456227  0.5127873    0.00000       Uiso       1.00
      F134          F  0.9980518  0.9385328  0.4716375    0.00000       Uiso       1.00
      F135          F  0.9839448  0.0159442  0.5096377    0.00000       Uiso       1.00
      F136          F  0.9427530  0.9405261  0.4683082    0.00000       Uiso       1.00
      F137          F  0.9807757  0.9546432  0.5218202    0.00000       Uiso       1.00
      F138          F  0.9394143  0.9957988  0.5289183    0.00000       Uiso       1.00
      C268          C  0.7124442  0.0074116  0.8827804    0.00000       Uiso       1.00
      C269          C  0.7010168  0.0057953  0.9038732    0.00000       Uiso       1.00
      C270          C  0.6781040  0.0022627  0.9135620    0.00000       Uiso       1.00
      C271          C  0.7010168  0.0057953  0.8714987    0.00000       Uiso       1.00
      C272          C  0.6781778  0.0024038  0.8811644    0.00000       Uiso       1.00
      C273          C  0.6661219  0.0004371  0.9023994    0.00000       Uiso       1.00
      C274          C  0.4116402  0.0557999  0.1835842    0.00000       Uiso       1.00
      C275          C  0.4327330  0.0670816  0.1721568    0.00000       Uiso       1.00
      C276          C  0.4425150  0.0574164  0.1493180    0.00000       Uiso       1.00
      C277          C  0.4003585  0.0347071  0.1721568    0.00000       Uiso       1.00
      C278          C  0.4100500  0.0250185  0.1492439    0.00000       Uiso       1.00
      C279          C  0.4313687  0.0361823  0.1372628    0.00000       Uiso       1.00
      C280          C  0.4116403  0.0558000  0.9311689    0.00000       Uiso       1.00
      C281          C  0.4003586  0.0347072  0.9327851    0.00000       Uiso       1.00
      C282          C  0.4100225  0.0249263  0.9361795    0.00000       Uiso       1.00
      C283          C  0.4327331  0.0670816  0.9327851    0.00000       Uiso       1.00
      C284          C  0.4424203  0.0573920  0.9363215    0.00000       Uiso       1.00
      C285          C  0.4312556  0.0360735  0.9381498    0.00000       Uiso       1.00
      C286          C  0.4600286  0.7549955  0.8827805    0.00000       Uiso       1.00
      C287          C  0.4616449  0.7664229  0.8714988    0.00000       Uiso       1.00
      C288          C  0.4651772  0.7893357  0.8811902    0.00000       Uiso       1.00
      C289          C  0.4616449  0.7664229  0.9038733    0.00000       Uiso       1.00
      C290          C  0.4650355  0.7892617  0.9136555    0.00000       Uiso       1.00
      C291          C  0.4670021  0.8013172  0.9025095    0.00000       Uiso       1.00
      C292          C  0.4989377  0.9685034  0.9700814    0.00000       Uiso       1.00
      F139          F  0.7128752  0.0075423  0.9162359    0.00000       Uiso       1.00
      F140          F  0.4598979  0.7545645  0.8490247    0.00000       Uiso       1.00
      F141          F  0.4450957  0.0895557  0.1840152    0.00000       Uiso       1.00
      F142          F  0.3778845  0.0223445  0.9310381    0.00000       Uiso       1.00
      F143          F  0.7128752  0.0075423  0.8490246    0.00000       Uiso       1.00
      F144          F  0.3778845  0.0223445  0.1840152    0.00000       Uiso       1.00
      F145          F  0.4450957  0.0895557  0.9310381    0.00000       Uiso       1.00
      F146          F  0.4598979  0.7545645  0.9162359    0.00000       Uiso       1.00
      F147          F  0.6665467  0.9999167  0.9357761    0.00000       Uiso       1.00
      F148          F  0.6669841  0.0013142  0.8685520    0.00000       Uiso       1.00
      F149          F  0.4661256  0.8004552  0.9363717    0.00000       Uiso       1.00
      F150          F  0.4675256  0.8008931  0.8681865    0.00000       Uiso       1.00
      F151          F  0.4652309  0.0700299  0.1381246    0.00000       Uiso       1.00
      F152          F  0.3970454  0.0028051  0.1376884    0.00000       Uiso       1.00
      F153          F  0.4646321  0.0704017  0.9386717    0.00000       Uiso       1.00
      F154          F  0.3974086  0.0022120  0.9372748    0.00000       Uiso       1.00
      C293          C  0.6413754  0.9963993  0.9126376    0.00000       Uiso       1.00
      C294          C  0.6311236  0.0047844  0.9356932    0.00000       Uiso       1.00
      C295          C  0.6081250  0.0009293  0.9452316    0.00000       Uiso       1.00
      C296          C  0.6277033  0.9840564  0.8994096    0.00000       Uiso       1.00
      C297          C  0.6047376  0.9802650  0.9087264    0.00000       Uiso       1.00
      C298          C  0.5948858  0.9886806  0.9317129    0.00000       Uiso       1.00
      C299          C  0.4418402  0.0259466  0.1125178    0.00000       Uiso       1.00
      C300          C  0.4563897  0.0391752  0.0988456    0.00000       Uiso       1.00
      C301          C  0.4662484  0.0298596  0.0758803    0.00000       Uiso       1.00
      C302          C  0.4374308  0.0028929  0.1022669    0.00000       Uiso       1.00
      C303          C  0.4470368  0.9933562  0.0792699    0.00000       Uiso       1.00
      C304          C  0.4615378  0.0068743  0.0660301    0.00000       Uiso       1.00
        H7          H  0.4267148  0.9922807  0.1122005    0.00000       Uiso       1.00
        H8          H  0.4598303  0.0567898  0.1059563    0.00000       Uiso       1.00
      C305          C  0.4414894  0.0256018  0.9421905    0.00000       Uiso       1.00
      C306          C  0.4282583  0.0110441  0.9545341    0.00000       Uiso       1.00
      C307          C  0.4375738  0.0011835  0.9583257    0.00000       Uiso       1.00
      C308          C  0.4645439  0.0300190  0.9338056    0.00000       Uiso       1.00
      C309          C  0.4740796  0.0204140  0.9376618    0.00000       Uiso       1.00
      C310          C  0.4605626  0.0059036  0.9499090    0.00000       Uiso       1.00
      C311          C  0.4710393  0.8260633  0.9129807    0.00000       Uiso       1.00
      C312          C  0.4626478  0.8363143  0.9085687    0.00000       Uiso       1.00
      C313          C  0.4665050  0.8593128  0.9181718    0.00000       Uiso       1.00
      C314          C  0.4833885  0.8397357  0.9275315    0.00000       Uiso       1.00
      C315          C  0.4871794  0.8627014  0.9373897    0.00000       Uiso       1.00
      C316          C  0.4787593  0.8725525  0.9326754    0.00000       Uiso       1.00
      C317          C  0.4583592  0.8693937  0.9134943    0.00000       Uiso       1.00
      C318          C  0.4625036  0.8922570  0.9228447    0.00000       Uiso       1.00
      C319          C  0.4423645  0.9704514  0.0691899    0.00000       Uiso       1.00
      C320          C  0.4517171  0.9610830  0.0463275    0.00000       Uiso       1.00
      F155          F  0.4460566  0.9367141  0.0363776    0.00000       Uiso       1.00
      F156          F  0.4271582  0.9556904  0.0826860    0.00000       Uiso       1.00
      F157          F  0.4453098  0.8558928  0.8982865    0.00000       Uiso       1.00
      F158          F  0.4537520  0.9022123  0.9171829    0.00000       Uiso       1.00
      F159          F  0.4039971  0.0063021  0.9642502    0.00000       Uiso       1.00
      F160          F  0.4791587  0.0447832  0.9202787    0.00000       Uiso       1.00
      F161          F  0.4491133  0.8226252  0.8938115    0.00000       Uiso       1.00
      F162          F  0.4931130  0.8299405  0.9322729    0.00000       Uiso       1.00
      F163          F  0.6374976  0.9743369  0.8751475    0.00000       Uiso       1.00
      F164          F  0.6448073  0.0183081  0.9503006    0.00000       Uiso       1.00
      C321          C  0.5717283  0.9846935  0.9412051    0.00000       Uiso       1.00
      C322          C  0.5617894  0.9927229  0.9642097    0.00000       Uiso       1.00
      C323          C  0.5386844  0.9881685  0.9736035    0.00000       Uiso       1.00
      C324          C  0.5585085  0.9723880  0.9276950    0.00000       Uiso       1.00
      C325          C  0.5355099  0.9682032  0.9372375    0.00000       Uiso       1.00
      C326          C  0.5249420  0.9759958  0.9603688    0.00000       Uiso       1.00
      C327          C  0.4712162  0.9973810  0.0428735    0.00000       Uiso       1.00
      C328          C  0.4856344  0.0108915  0.0296520    0.00000       Uiso       1.00
      C329          C  0.4949072  0.0013490  0.0066525    0.00000       Uiso       1.00
      C330          C  0.4661889  0.9743760  0.0329352    0.00000       Uiso       1.00
      C331          C  0.4753448  0.9649823  0.0098293    0.00000       Uiso       1.00
      C332          C  0.4901398  0.9782169  0.9960861    0.00000       Uiso       1.00
      C333          C  0.4700582  0.9962265  0.9538924    0.00000       Uiso       1.00
      C334          C  0.4565478  0.9817992  0.9661960    0.00000       Uiso       1.00
      C335          C  0.4660920  0.9725279  0.9703796    0.00000       Uiso       1.00
      C336          C  0.4930649  0.0012655  0.9458623    0.00000       Uiso       1.00
      C337          C  0.5024601  0.9921105  0.9504185    0.00000       Uiso       1.00
      C338          C  0.4892249  0.9773037  0.9625896    0.00000       Uiso       1.00
      C339          C  0.4827464  0.8957096  0.9423535    0.00000       Uiso       1.00
      C340          C  0.4747132  0.9056492  0.9373203    0.00000       Uiso       1.00
      C341          C  0.4792702  0.9287564  0.9464770    0.00000       Uiso       1.00
      C342          C  0.4950528  0.9089298  0.9567785    0.00000       Uiso       1.00
      C343          C  0.4992356  0.9319291  0.9660532    0.00000       Uiso       1.00
      C344          C  0.4914451  0.9424982  0.9612807    0.00000       Uiso       1.00
      C345          C  0.5063577  0.0157467  0.9336584    0.00000       Uiso       1.00
      C346          C  0.4969869  0.0250973  0.9295170    0.00000       Uiso       1.00
      C347          C  0.4336496  0.9771534  0.9744226    0.00000       Uiso       1.00
      C348          C  0.4242908  0.9867415  0.9705641    0.00000       Uiso       1.00
      C349          C  0.5751805  0.0049273  0.9775042    0.00000       Uiso       1.00
      C350          C  0.5980440  0.0090701  0.9681368    0.00000       Uiso       1.00
      C351          C  0.5685354  0.9641631  0.9047958    0.00000       Uiso       1.00
      C352          C  0.5913437  0.9680268  0.8954393    0.00000       Uiso       1.00
      C353          C  0.5032804  0.8989027  0.9614221    0.00000       Uiso       1.00
      C354          C  0.4994199  0.8760960  0.9518303    0.00000       Uiso       1.00
      C355          C  0.4902725  0.0337899  0.0396779    0.00000       Uiso       1.00
      C356          C  0.4806835  0.0431458  0.0624851    0.00000       Uiso       1.00
      F165          F  0.3999574  0.9814426  0.9797298    0.00000       Uiso       1.00
      F166          F  0.4189027  0.9620596  0.9875953    0.00000       Uiso       1.00
      F167          F  0.5307276  0.0214183  0.9249119    0.00000       Uiso       1.00
      F168          F  0.5117466  0.0403138  0.9164770    0.00000       Uiso       1.00
      F169          F  0.5550193  0.9509903  0.8900456    0.00000       Uiso       1.00
      F170          F  0.6012199  0.9588674  0.8711063    0.00000       Uiso       1.00
      F171          F  0.5652290  0.0136739  0.0018733    0.00000       Uiso       1.00
      F172          F  0.6115460  0.0221096  0.9828913    0.00000       Uiso       1.00
      F173          F  0.4859736  0.0674781  0.0723550    0.00000       Uiso       1.00
      F174          F  0.5053568  0.0485358  0.0261567    0.00000       Uiso       1.00
      F175          F  0.5085848  0.8662241  0.9571266    0.00000       Uiso       1.00
      F176          F  0.5164506  0.9124221  0.9765183    0.00000       Uiso       1.00
      F177          F  0.4515001  0.9577835  0.9839280    0.00000       Uiso       1.00
      F178          F  0.5269167  0.9991698  0.9427927    0.00000       Uiso       1.00
      F179          F  0.5127805  0.9456229  0.9808007    0.00000       Uiso       1.00
      F180          F  0.4716308  0.9385328  0.9394369    0.00000       Uiso       1.00
      F181          F  0.5096310  0.0159444  0.9929548    0.00000       Uiso       1.00
      F182          F  0.4683016  0.9405259  0.0000577    0.00000       Uiso       1.00
      F183          F  0.5218135  0.9546433  0.9226409    0.00000       Uiso       1.00
      F184          F  0.5289114  0.9957988  0.9980599    0.00000       Uiso       1.00
      C357          C  0.7124442  0.5846666  0.8827805    0.00000       Uiso       1.00
      C358          C  0.7010167  0.5635738  0.8714988    0.00000       Uiso       1.00
      C359          C  0.6781039  0.5538850  0.8811902    0.00000       Uiso       1.00
      C360          C  0.7010168  0.5959483  0.9038733    0.00000       Uiso       1.00
      C361          C  0.6781778  0.5862826  0.9136551    0.00000       Uiso       1.00
      C362          C  0.6661218  0.5650475  0.9025092    0.00000       Uiso       1.00
      C363          C  0.4116400  0.2838624  0.9311690    0.00000       Uiso       1.00
      C364          C  0.4327328  0.2952898  0.9327853    0.00000       Uiso       1.00
      C365          C  0.4425148  0.3181286  0.9361770    0.00000       Uiso       1.00
      C366          C  0.4003583  0.2952898  0.9327853    0.00000       Uiso       1.00
      C367          C  0.4100498  0.3182028  0.9363181    0.00000       Uiso       1.00
      C368          C  0.4313685  0.3301838  0.9381442    0.00000       Uiso       1.00
      C369          C  0.4116403  0.5362780  0.1835840    0.00000       Uiso       1.00
      C370          C  0.4003586  0.5346617  0.1721566    0.00000       Uiso       1.00
      C371          C  0.4100225  0.5312673  0.1493174    0.00000       Uiso       1.00
      C372          C  0.4327331  0.5346617  0.1721566    0.00000       Uiso       1.00
      C373          C  0.4424203  0.5311254  0.1492433    0.00000       Uiso       1.00
      C374          C  0.4312556  0.5292971  0.1372612    0.00000       Uiso       1.00
      C375          C  0.4600286  0.5846666  0.8827805    0.00000       Uiso       1.00
      C376          C  0.4616449  0.5959482  0.9038733    0.00000       Uiso       1.00
      C377          C  0.4651772  0.5862567  0.9135622    0.00000       Uiso       1.00
      C378          C  0.4616449  0.5635738  0.8714988    0.00000       Uiso       1.00
      C379          C  0.4650355  0.5537916  0.8811648    0.00000       Uiso       1.00
      C380          C  0.4670021  0.5649375  0.9023997    0.00000       Uiso       1.00
      C381          C  0.4989376  0.4973657  0.9700786    0.00000       Uiso       1.00
      F185          F  0.7128751  0.5512111  0.8490247    0.00000       Uiso       1.00
      F186          F  0.4598979  0.6184223  0.9162360    0.00000       Uiso       1.00
      F187          F  0.4450955  0.2834314  0.9310383    0.00000       Uiso       1.00
      F188          F  0.3778845  0.5364087  0.1840150    0.00000       Uiso       1.00
      F189          F  0.7128751  0.6184223  0.9162360    0.00000       Uiso       1.00
      F190          F  0.3778843  0.2834314  0.9310383    0.00000       Uiso       1.00
      F191          F  0.4450957  0.5364087  0.1840150    0.00000       Uiso       1.00
      F192          F  0.4598978  0.5512111  0.8490247    0.00000       Uiso       1.00
      F193          F  0.6665466  0.5316709  0.8681880    0.00000       Uiso       1.00
      F194          F  0.6669841  0.5988949  0.9363716    0.00000       Uiso       1.00
      F195          F  0.4661255  0.5310754  0.8685519    0.00000       Uiso       1.00
      F196          F  0.4675256  0.5992605  0.9357750    0.00000       Uiso       1.00
      F197          F  0.4652306  0.3293220  0.9372680    0.00000       Uiso       1.00
      F198          F  0.3970452  0.3297582  0.9386647    0.00000       Uiso       1.00
      F199          F  0.4646320  0.5287752  0.1376911    0.00000       Uiso       1.00
      F200          F  0.3974086  0.5301720  0.1381217    0.00000       Uiso       1.00
      C382          C  0.6413754  0.5548095  0.9129805    0.00000       Uiso       1.00
      C383          C  0.6311235  0.5317538  0.9085612    0.00000       Uiso       1.00
      C384          C  0.6081250  0.5222154  0.9181663    0.00000       Uiso       1.00
      C385          C  0.6277032  0.5680374  0.9275376    0.00000       Uiso       1.00
      C386          C  0.6047376  0.5587206  0.9373952    0.00000       Uiso       1.00
      C387          C  0.5948857  0.5357341  0.9326761    0.00000       Uiso       1.00
      C388          C  0.4418400  0.3549288  0.9421821    0.00000       Uiso       1.00
      C389          C  0.4563894  0.3686010  0.9545333    0.00000       Uiso       1.00
      C390          C  0.4662482  0.3915662  0.9583244    0.00000       Uiso       1.00
      C391          C  0.4374306  0.3651796  0.9337885    0.00000       Uiso       1.00
      C392          C  0.4470366  0.3881766  0.9376435    0.00000       Uiso       1.00
      C393          C  0.4615376  0.4014164  0.9498999    0.00000       Uiso       1.00
        H9          H  0.4267146  0.3552460  0.9239593    0.00000       Uiso       1.00
       H10          H  0.4598301  0.3614902  0.9615966    0.00000       Uiso       1.00
      C394          C  0.4414895  0.5252564  0.1125150    0.00000       Uiso       1.00
      C395          C  0.4282582  0.5129128  0.0988449    0.00000       Uiso       1.00
      C396          C  0.4375738  0.5091211  0.0758770    0.00000       Uiso       1.00
      C397          C  0.4645439  0.5336412  0.1022626    0.00000       Uiso       1.00
      C398          C  0.4740796  0.5297850  0.0792656    0.00000       Uiso       1.00
      C399          C  0.4605626  0.5175378  0.0660251    0.00000       Uiso       1.00
      C400          C  0.4710392  0.5544662  0.9126374    0.00000       Uiso       1.00
      C401          C  0.4626478  0.5588783  0.9356919    0.00000       Uiso       1.00
      C402          C  0.4665050  0.5492752  0.9452301    0.00000       Uiso       1.00
      C403          C  0.4833885  0.5399156  0.8994099    0.00000       Uiso       1.00
      C404          C  0.4871793  0.5300574  0.9087265    0.00000       Uiso       1.00
      C405          C  0.4787592  0.5347717  0.9317119    0.00000       Uiso       1.00
      C406          C  0.4583592  0.5539528  0.9681343    0.00000       Uiso       1.00
      C407          C  0.4625036  0.5446024  0.9775029    0.00000       Uiso       1.00
      C408          C  0.4423643  0.3982567  0.9294910    0.00000       Uiso       1.00
      C409          C  0.4517169  0.4211190  0.9336323    0.00000       Uiso       1.00
      F201          F  0.4460565  0.4310689  0.9248738    0.00000       Uiso       1.00
      F202          F  0.4271580  0.3847605  0.9164401    0.00000       Uiso       1.00
      F203          F  0.4453097  0.5691606  0.9828908    0.00000       Uiso       1.00
      F204          F  0.4537520  0.5502639  0.0018710    0.00000       Uiso       1.00
      F205          F  0.4039971  0.5031967  0.1086479    0.00000       Uiso       1.00
      F206          F  0.4791587  0.5471682  0.1159389    0.00000       Uiso       1.00
      F207          F  0.4491132  0.5736356  0.9502946    0.00000       Uiso       1.00
      F208          F  0.4931129  0.5351741  0.8751488    0.00000       Uiso       1.00
      F209          F  0.6374975  0.5922995  0.9322860    0.00000       Uiso       1.00
      F210          F  0.6448073  0.5171465  0.8937938    0.00000       Uiso       1.00
      C410          C  0.5717282  0.5262420  0.9423543    0.00000       Uiso       1.00
      C411          C  0.5617893  0.5032374  0.9373180    0.00000       Uiso       1.00
      C412          C  0.5386842  0.4938435  0.9464749    0.00000       Uiso       1.00
      C413          C  0.5585085  0.5397521  0.9567788    0.00000       Uiso       1.00
      C414          C  0.5355099  0.5302095  0.9660500    0.00000       Uiso       1.00
      C415          C  0.5249420  0.5070783  0.9612792    0.00000       Uiso       1.00
      C416          C  0.4712161  0.4245729  0.9538852    0.00000       Uiso       1.00
      C417          C  0.4856342  0.4377945  0.9661985    0.00000       Uiso       1.00
      C418          C  0.4949070  0.4607939  0.9703827    0.00000       Uiso       1.00
      C419          C  0.4661887  0.4345112  0.9458458    0.00000       Uiso       1.00
      C420          C  0.4753446  0.4576172  0.9504021    0.00000       Uiso       1.00
      C421          C  0.4901398  0.4713610  0.9625853    0.00000       Uiso       1.00
      C422          C  0.4700583  0.5135545  0.0428695    0.00000       Uiso       1.00
      C423          C  0.4565478  0.5012509  0.0296490    0.00000       Uiso       1.00
      C424          C  0.4660921  0.4970673  0.0066499    0.00000       Uiso       1.00
      C425          C  0.4930649  0.5215846  0.0329314    0.00000       Uiso       1.00
      C426          C  0.5024602  0.5170284  0.0098255    0.00000       Uiso       1.00
      C427          C  0.4892248  0.5048575  0.9960834    0.00000       Uiso       1.00
      C428          C  0.4827464  0.5250936  0.9412040    0.00000       Uiso       1.00
      C429          C  0.4747131  0.5301268  0.9642100    0.00000       Uiso       1.00
      C430          C  0.4792701  0.5209700  0.9736034    0.00000       Uiso       1.00
      C431          C  0.4950527  0.5106686  0.9276928    0.00000       Uiso       1.00
      C432          C  0.4992355  0.5013939  0.9372345    0.00000       Uiso       1.00
      C433          C  0.4914450  0.5061665  0.9603667    0.00000       Uiso       1.00
      C434          C  0.5063577  0.5337884  0.0463235    0.00000       Uiso       1.00
      C435          C  0.4969870  0.5379300  0.0691864    0.00000       Uiso       1.00
      C436          C  0.4336496  0.4930243  0.0396748    0.00000       Uiso       1.00
      C437          C  0.4242908  0.4968828  0.0624803    0.00000       Uiso       1.00
      C438          C  0.5751804  0.4899429  0.9228364    0.00000       Uiso       1.00
      C439          C  0.5980439  0.4993103  0.9134830    0.00000       Uiso       1.00
      C440          C  0.5685353  0.5626512  0.9614260    0.00000       Uiso       1.00
      C441          C  0.5913436  0.5720077  0.9518379    0.00000       Uiso       1.00
      C442          C  0.5032803  0.5060250  0.9047943    0.00000       Uiso       1.00
      C443          C  0.4994199  0.5156167  0.8954399    0.00000       Uiso       1.00
      C444          C  0.4902723  0.4277685  0.9744328    0.00000       Uiso       1.00
      C445          C  0.4806833  0.4049614  0.9705706    0.00000       Uiso       1.00
      F211          F  0.3999574  0.4877172  0.0723490    0.00000       Uiso       1.00
      F212          F  0.4189027  0.4798516  0.0261552    0.00000       Uiso       1.00
      F213          F  0.5307275  0.5425350  0.0363719    0.00000       Uiso       1.00
      F214          F  0.5117466  0.5509698  0.0826832    0.00000       Uiso       1.00
      F215          F  0.5550191  0.5774013  0.9765196    0.00000       Uiso       1.00
      F216          F  0.6012198  0.5963407  0.9571353    0.00000       Uiso       1.00
      F217          F  0.5652288  0.4655731  0.9171648    0.00000       Uiso       1.00
      F218          F  0.6115459  0.4845557  0.8982659    0.00000       Uiso       1.00
      F219          F  0.4859733  0.3950915  0.9797429    0.00000       Uiso       1.00
      F220          F  0.5053567  0.4412897  0.9876156    0.00000       Uiso       1.00
      F221          F  0.5085847  0.5103206  0.8711069    0.00000       Uiso       1.00
      F222          F  0.5164505  0.4909288  0.8900474    0.00000       Uiso       1.00
      F223          F  0.4515000  0.4835192  0.9929498    0.00000       Uiso       1.00
      F224          F  0.5269167  0.5246542  0.0000540    0.00000       Uiso       1.00
      F225          F  0.5127805  0.4866464  0.9226359    0.00000       Uiso       1.00
      F226          F  0.4716308  0.5280101  0.9980594    0.00000       Uiso       1.00
      F227          F  0.5096309  0.4744923  0.9839523    0.00000       Uiso       1.00
      F228          F  0.4683014  0.4673887  0.9427605    0.00000       Uiso       1.00
      F229          F  0.5218134  0.5448062  0.9807833    0.00000       Uiso       1.00
      F230          F  0.5289114  0.4693872  0.9394217    0.00000       Uiso       1.00
      C446          C  0.8827730  0.0074116  0.8827804    0.00000       Uiso       1.00
      C447          C  0.9038658  0.0057953  0.8714987    0.00000       Uiso       1.00
      C448          C  0.9135545  0.0022626  0.8811901    0.00000       Uiso       1.00
      C449          C  0.8714913  0.0057953  0.9038733    0.00000       Uiso       1.00
      C450          C  0.8811570  0.0024038  0.9136550    0.00000       Uiso       1.00
      C451          C  0.9023920  0.0004371  0.9025092    0.00000       Uiso       1.00
      C452          C  0.1835778  0.0558000  0.9311689    0.00000       Uiso       1.00
      C453          C  0.1721504  0.0670817  0.9327852    0.00000       Uiso       1.00
      C454          C  0.1493115  0.0574166  0.9361768    0.00000       Uiso       1.00
      C455          C  0.1721503  0.0347073  0.9327852    0.00000       Uiso       1.00
      C456          C  0.1492374  0.0250187  0.9363180    0.00000       Uiso       1.00
      C457          C  0.1372563  0.0361824  0.9381441    0.00000       Uiso       1.00
      C458          C  0.9311615  0.0557998  0.1835840    0.00000       Uiso       1.00
      C459          C  0.9327778  0.0347070  0.1721566    0.00000       Uiso       1.00
      C460          C  0.9361721  0.0249261  0.1493174    0.00000       Uiso       1.00
      C461          C  0.9327778  0.0670815  0.1721566    0.00000       Uiso       1.00
      C462          C  0.9363141  0.0573918  0.1492433    0.00000       Uiso       1.00
      C463          C  0.9381424  0.0360733  0.1372612    0.00000       Uiso       1.00
      C464          C  0.8827729  0.7549955  0.8827805    0.00000       Uiso       1.00
      C465          C  0.8714913  0.7664229  0.9038733    0.00000       Uiso       1.00
      C466          C  0.8811828  0.7893357  0.9135622    0.00000       Uiso       1.00
      C467          C  0.9038658  0.7664229  0.8714988    0.00000       Uiso       1.00
      C468          C  0.9136479  0.7892616  0.8811648    0.00000       Uiso       1.00
      C469          C  0.9025021  0.8013172  0.9023997    0.00000       Uiso       1.00
      C470          C  0.9700738  0.9685034  0.9700785    0.00000       Uiso       1.00
      F231          F  0.9162285  0.0075423  0.8490246    0.00000       Uiso       1.00
      F232          F  0.8490173  0.7545645  0.9162360    0.00000       Uiso       1.00
      F233          F  0.1840087  0.0895558  0.9310382    0.00000       Uiso       1.00
      F234          F  0.9310308  0.0223443  0.1840150    0.00000       Uiso       1.00
      F235          F  0.8490173  0.0075423  0.9162359    0.00000       Uiso       1.00
      F236          F  0.1840087  0.0223446  0.9310382    0.00000       Uiso       1.00
      F237          F  0.9310308  0.0895555  0.1840150    0.00000       Uiso       1.00
      F238          F  0.9162285  0.7545645  0.8490247    0.00000       Uiso       1.00
      F239          F  0.9357687  0.9999167  0.8681880    0.00000       Uiso       1.00
      F240          F  0.8685446  0.0013142  0.9363714    0.00000       Uiso       1.00
      F241          F  0.9363642  0.8004551  0.8685519    0.00000       Uiso       1.00
      F242          F  0.8681790  0.8008930  0.9357750    0.00000       Uiso       1.00
      F243          F  0.1381182  0.0700301  0.9372678    0.00000       Uiso       1.00
      F244          F  0.1376820  0.0028052  0.9386646    0.00000       Uiso       1.00
      F245          F  0.9386644  0.0704015  0.1376910    0.00000       Uiso       1.00
      F246          F  0.9372674  0.0022118  0.1381217    0.00000       Uiso       1.00
      C471          C  0.9126301  0.9963993  0.9129804    0.00000       Uiso       1.00
      C472          C  0.9356858  0.0047844  0.9085612    0.00000       Uiso       1.00
      C473          C  0.9452241  0.0009293  0.9181662    0.00000       Uiso       1.00
      C474          C  0.8994023  0.9840564  0.9275375    0.00000       Uiso       1.00
      C475          C  0.9087190  0.9802650  0.9373951    0.00000       Uiso       1.00
      C476          C  0.9317055  0.9886806  0.9326760    0.00000       Uiso       1.00
      C477          C  0.1125114  0.0259468  0.9421820    0.00000       Uiso       1.00
      C478          C  0.0988392  0.0391753  0.9545333    0.00000       Uiso       1.00
      C479          C  0.0758739  0.0298598  0.9583243    0.00000       Uiso       1.00
      C480          C  0.1022606  0.0028930  0.9337885    0.00000       Uiso       1.00
      C481          C  0.0792636  0.9933563  0.9376434    0.00000       Uiso       1.00
      C482          C  0.0660237  0.0068745  0.9498998    0.00000       Uiso       1.00
       H11          H  0.1121941  0.9922808  0.9239593    0.00000       Uiso       1.00
       H12          H  0.1059499  0.0567900  0.9615965    0.00000       Uiso       1.00
      C483          C  0.9421831  0.0256016  0.1125149    0.00000       Uiso       1.00
      C484          C  0.9545267  0.0110439  0.0988449    0.00000       Uiso       1.00
      C485          C  0.9583184  0.0011833  0.0758770    0.00000       Uiso       1.00
      C486          C  0.9337983  0.0300188  0.1022625    0.00000       Uiso       1.00
      C487          C  0.9376545  0.0204138  0.0792656    0.00000       Uiso       1.00
      C488          C  0.9499016  0.0059034  0.0660250    0.00000       Uiso       1.00
      C489          C  0.9129732  0.8260632  0.9126374    0.00000       Uiso       1.00
      C490          C  0.9085612  0.8363143  0.9356918    0.00000       Uiso       1.00
      C491          C  0.9181644  0.8593128  0.9452301    0.00000       Uiso       1.00
      C492          C  0.9275240  0.8397357  0.8994098    0.00000       Uiso       1.00
      C493          C  0.9373822  0.8627013  0.9087265    0.00000       Uiso       1.00
      C494          C  0.9326679  0.8725524  0.9317119    0.00000       Uiso       1.00
      C495          C  0.9134868  0.8693936  0.9681343    0.00000       Uiso       1.00
      C496          C  0.9228372  0.8922570  0.9775029    0.00000       Uiso       1.00
      C497          C  0.0691835  0.9704515  0.9294910    0.00000       Uiso       1.00
      C498          C  0.0463212  0.9610832  0.9336323    0.00000       Uiso       1.00
      F247          F  0.0363713  0.9367143  0.9248738    0.00000       Uiso       1.00
      F248          F  0.0826796  0.9556905  0.9164401    0.00000       Uiso       1.00
      F249          F  0.8982790  0.8558928  0.9828908    0.00000       Uiso       1.00
      F250          F  0.9171755  0.9022121  0.0018710    0.00000       Uiso       1.00
      F251          F  0.9642428  0.0063019  0.1086479    0.00000       Uiso       1.00
      F252          F  0.9202714  0.0447830  0.1159388    0.00000       Uiso       1.00
      F253          F  0.8938040  0.8226252  0.9502946    0.00000       Uiso       1.00
      F254          F  0.9322654  0.8299405  0.8751488    0.00000       Uiso       1.00
      F255          F  0.8751401  0.9743370  0.9322859    0.00000       Uiso       1.00
      F256          F  0.9502931  0.0183081  0.8937937    0.00000       Uiso       1.00
      C499          C  0.9411976  0.9846935  0.9423543    0.00000       Uiso       1.00
      C500          C  0.9642022  0.9927229  0.9373180    0.00000       Uiso       1.00
      C501          C  0.9735961  0.9881684  0.9464748    0.00000       Uiso       1.00
      C502          C  0.9276875  0.9723880  0.9567788    0.00000       Uiso       1.00
      C503          C  0.9372301  0.9682032  0.9660500    0.00000       Uiso       1.00
      C504          C  0.9603613  0.9759958  0.9612791    0.00000       Uiso       1.00
      C505          C  0.0428672  0.9973812  0.9538851    0.00000       Uiso       1.00
      C506          C  0.0296457  0.0108916  0.9661984    0.00000       Uiso       1.00
      C507          C  0.0066463  0.0013492  0.9703826    0.00000       Uiso       1.00
      C508          C  0.0329289  0.9743761  0.9458458    0.00000       Uiso       1.00
      C509          C  0.0098230  0.9649824  0.9504020    0.00000       Uiso       1.00
      C510          C  0.9960786  0.9782169  0.9625853    0.00000       Uiso       1.00
      C511          C  0.9538850  0.9962263  0.0428694    0.00000       Uiso       1.00
      C512          C  0.9661886  0.9817989  0.0296489    0.00000       Uiso       1.00
      C513          C  0.9703721  0.9725277  0.0066498    0.00000       Uiso       1.00
      C514          C  0.9458549  0.0012654  0.0329313    0.00000       Uiso       1.00
      C515          C  0.9504110  0.9921103  0.0098254    0.00000       Uiso       1.00
      C516          C  0.9625822  0.9773036  0.9960834    0.00000       Uiso       1.00
      C517          C  0.9423459  0.8957096  0.9412040    0.00000       Uiso       1.00
      C518          C  0.9373128  0.9056492  0.9642100    0.00000       Uiso       1.00
      C519          C  0.9464695  0.9287564  0.9736034    0.00000       Uiso       1.00
      C520          C  0.9567709  0.9089297  0.9276927    0.00000       Uiso       1.00
      C521          C  0.9660458  0.9319291  0.9372344    0.00000       Uiso       1.00
      C522          C  0.9612731  0.9424982  0.9603667    0.00000       Uiso       1.00
      C523          C  0.9336511  0.0157465  0.0463235    0.00000       Uiso       1.00
      C524          C  0.9295096  0.0250971  0.0691863    0.00000       Uiso       1.00
      C525          C  0.9744152  0.9771532  0.0396747    0.00000       Uiso       1.00
      C526          C  0.9705567  0.9867414  0.0624802    0.00000       Uiso       1.00
      C527          C  0.9774966  0.0049273  0.9228363    0.00000       Uiso       1.00
      C528          C  0.9681293  0.0090701  0.9134829    0.00000       Uiso       1.00
      C529          C  0.9047884  0.9641630  0.9614260    0.00000       Uiso       1.00
      C530          C  0.8954319  0.9680268  0.9518378    0.00000       Uiso       1.00
      C531          C  0.9614146  0.8989027  0.9047943    0.00000       Uiso       1.00
      C532          C  0.9518228  0.8760959  0.8954399    0.00000       Uiso       1.00
      C533          C  0.0396716  0.0337900  0.9744328    0.00000       Uiso       1.00
      C534          C  0.0624788  0.0431460  0.9705706    0.00000       Uiso       1.00
      F257          F  0.9797223  0.9814424  0.0723490    0.00000       Uiso       1.00
      F258          F  0.9875879  0.9620593  0.0261551    0.00000       Uiso       1.00
      F259          F  0.9249045  0.0214181  0.0363719    0.00000       Uiso       1.00
      F260          F  0.9164696  0.0403135  0.0826832    0.00000       Uiso       1.00
      F261          F  0.8900382  0.9509903  0.9765196    0.00000       Uiso       1.00
      F262          F  0.8710989  0.9588673  0.9571353    0.00000       Uiso       1.00
      F263          F  0.0018671  0.0136740  0.9171647    0.00000       Uiso       1.00
      F264          F  0.9828838  0.0221096  0.8982657    0.00000       Uiso       1.00
      F265          F  0.0723487  0.0674783  0.9797428    0.00000       Uiso       1.00
      F266          F  0.0261505  0.0485360  0.9876155    0.00000       Uiso       1.00
      F267          F  0.9571189  0.8662240  0.8711069    0.00000       Uiso       1.00
      F268          F  0.9765107  0.9124220  0.8900474    0.00000       Uiso       1.00
      F269          F  0.9839205  0.9577835  0.9929497    0.00000       Uiso       1.00
      F270          F  0.9427853  0.9991696  0.0000540    0.00000       Uiso       1.00
      F271          F  0.9807932  0.9456228  0.9226358    0.00000       Uiso       1.00
      F272          F  0.9394295  0.9385328  0.9980593    0.00000       Uiso       1.00
      F273          F  0.9929473  0.0159443  0.9839523    0.00000       Uiso       1.00
      F274          F  0.0000514  0.9405261  0.9427605    0.00000       Uiso       1.00
      F275          F  0.9226334  0.9546433  0.9807832    0.00000       Uiso       1.00
      F276          F  0.9980524  0.9957989  0.9394217    0.00000       Uiso       1.00
        B1          B  0.8714833  0.5959562  0.4575421    0.00000       Uiso       1.00
        B2          B  0.7375169  0.5959562  0.4575421    0.00000       Uiso       1.00
        B3          B  0.8714833  0.7299226  0.4575421    0.00000       Uiso       1.00
      C535          C  0.8272793  0.6208563  0.4560526    0.00000       Uiso       1.00
      C536          C  0.8465912  0.6025806  0.4564385    0.00000       Uiso       1.00
       H13          H  0.8141304  0.5867091  0.4561255    0.00000       Uiso       1.00
        O1          O  0.8489684  0.5856217  0.4570996    0.00000       Uiso       1.00
      C537          C  0.8278270  0.6020302  0.4562065    0.00000       Uiso       1.00
      C538          C  0.8081105  0.6401601  0.4560526    0.00000       Uiso       1.00
      C539          C  0.7701370  0.6208482  0.4564385    0.00000       Uiso       1.00
       H14          H  0.7870392  0.6533090  0.4561255    0.00000       Uiso       1.00
        O2          O  0.7501397  0.6184710  0.4570996    0.00000       Uiso       1.00
      C540          C  0.7885827  0.6396124  0.4562064    0.00000       Uiso       1.00
      C541          C  0.8465831  0.6593290  0.4560526    0.00000       Uiso       1.00
      C542          C  0.8648589  0.6973025  0.4564385    0.00000       Uiso       1.00
       H15          H  0.8807304  0.6804002  0.4561255    0.00000       Uiso       1.00
        O3          O  0.8818178  0.7172998  0.4570996    0.00000       Uiso       1.00
      C543          C  0.8654094  0.6788568  0.4562064    0.00000       Uiso       1.00
      C544          C  0.8081104  0.6208563  0.4560526    0.00000       Uiso       1.00
      C545          C  0.7701370  0.6025806  0.4564385    0.00000       Uiso       1.00
        O4          O  0.7501397  0.5856217  0.4570996    0.00000       Uiso       1.00
       H16          H  0.7870392  0.5867091  0.4561255    0.00000       Uiso       1.00
      C546          C  0.7885827  0.6020302  0.4562064    0.00000       Uiso       1.00
      C547          C  0.8465831  0.6401601  0.4560526    0.00000       Uiso       1.00
      C548          C  0.8648589  0.6208482  0.4564385    0.00000       Uiso       1.00
       H17          H  0.8807305  0.6533090  0.4561255    0.00000       Uiso       1.00
        O5          O  0.8818178  0.6184710  0.4570996    0.00000       Uiso       1.00
      C549          C  0.8654093  0.6396124  0.4562064    0.00000       Uiso       1.00
      C550          C  0.8272793  0.6593290  0.4560526    0.00000       Uiso       1.00
      C551          C  0.8465912  0.6973025  0.4564385    0.00000       Uiso       1.00
       H18          H  0.8141304  0.6804002  0.4561255    0.00000       Uiso       1.00
        O6          O  0.8489684  0.7172998  0.4570996    0.00000       Uiso       1.00
      C552          C  0.8278271  0.6788568  0.4562064    0.00000       Uiso       1.00
        B4          B  0.4575353  0.7299227  0.8714907    0.00000       Uiso       1.00
        B5          B  0.4575353  0.5959563  0.7375242    0.00000       Uiso       1.00
        B6          B  0.4575353  0.5959563  0.8714907    0.00000       Uiso       1.00
      C553          C  0.4560458  0.6593291  0.8272867    0.00000       Uiso       1.00
      C554          C  0.4564317  0.6973026  0.8465986    0.00000       Uiso       1.00
       H19          H  0.4561187  0.6804003  0.8141378    0.00000       Uiso       1.00
        O7          O  0.4570928  0.7172999  0.8489758    0.00000       Uiso       1.00
      C555          C  0.4561997  0.6788568  0.8278344    0.00000       Uiso       1.00
      C556          C  0.4560459  0.6208565  0.8081177    0.00000       Uiso       1.00
      C557          C  0.4564317  0.6025807  0.7701442    0.00000       Uiso       1.00
       H20          H  0.4561187  0.5867091  0.7870465    0.00000       Uiso       1.00
        O8          O  0.4570928  0.5856217  0.7501469    0.00000       Uiso       1.00
      C558          C  0.4561996  0.6020303  0.7885900    0.00000       Uiso       1.00
      C559          C  0.4560458  0.6401602  0.8465905    0.00000       Uiso       1.00
      C560          C  0.4564317  0.6208484  0.8648663    0.00000       Uiso       1.00
       H21          H  0.4561187  0.6533092  0.8807378    0.00000       Uiso       1.00
        O9          O  0.4570928  0.6184711  0.8818253    0.00000       Uiso       1.00
      C561          C  0.4561996  0.6396125  0.8654167    0.00000       Uiso       1.00
      C562          C  0.4560459  0.6401603  0.8081177    0.00000       Uiso       1.00
      C563          C  0.4564317  0.6208484  0.7701442    0.00000       Uiso       1.00
       O10          O  0.4570928  0.6184711  0.7501469    0.00000       Uiso       1.00
       H22          H  0.4561187  0.6533092  0.7870465    0.00000       Uiso       1.00
      C564          C  0.4561997  0.6396125  0.7885900    0.00000       Uiso       1.00
      C565          C  0.4560459  0.6593291  0.8465905    0.00000       Uiso       1.00
      C566          C  0.4564317  0.6973026  0.8648663    0.00000       Uiso       1.00
       H23          H  0.4561187  0.6804004  0.8807378    0.00000       Uiso       1.00
       O11          O  0.4570928  0.7172999  0.8818252    0.00000       Uiso       1.00
      C567          C  0.4561996  0.6788569  0.8654167    0.00000       Uiso       1.00
      C568          C  0.4560458  0.6208565  0.8272867    0.00000       Uiso       1.00
      C569          C  0.4564317  0.6025807  0.8465986    0.00000       Uiso       1.00
       H24          H  0.4561187  0.5867091  0.8141378    0.00000       Uiso       1.00
       O12          O  0.4570928  0.5856217  0.8489758    0.00000       Uiso       1.00
      C570          C  0.4561996  0.6020303  0.8278345    0.00000       Uiso       1.00
      C571          C  0.3756995  0.5403036  0.3938591    0.00000       Uiso       1.00
      C572          C  0.3569685  0.5414324  0.3948503    0.00000       Uiso       1.00
      C573          C  0.3389905  0.5436262  0.4144222    0.00000       Uiso       1.00
      C574          C  0.3199405  0.5436164  0.4148138    0.00000       Uiso       1.00
      C575          C  0.3179423  0.5401621  0.3953200    0.00000       Uiso       1.00
      C576          C  0.3361438  0.5376512  0.3757048    0.00000       Uiso       1.00
      C577          C  0.3562341  0.5398106  0.3754046    0.00000       Uiso       1.00
       O13          O  0.3787052  0.5407768  0.4111122    0.00000       Uiso       1.00
       H25          H  0.3397915  0.5453700  0.4294490    0.00000       Uiso       1.00
       H26          H  0.3068294  0.5460973  0.4304862    0.00000       Uiso       1.00
       H27          H  0.3342549  0.5325916  0.3602750    0.00000       Uiso       1.00
      C578          C  0.3938558  0.5403616  0.2413676    0.00000       Uiso       1.00
      C579          C  0.3948494  0.5415035  0.2602421    0.00000       Uiso       1.00
      C580          C  0.4144169  0.5436864  0.2608425    0.00000       Uiso       1.00
      C581          C  0.4148026  0.5436701  0.2794911    0.00000       Uiso       1.00
      C582          C  0.3953070  0.5402145  0.2975264    0.00000       Uiso       1.00
      C583          C  0.3756991  0.5377253  0.2964306    0.00000       Uiso       1.00
      C584          C  0.3754062  0.5398940  0.2788014    0.00000       Uiso       1.00
       O14          O  0.4111032  0.5408049  0.2215735    0.00000       Uiso       1.00
       H28          H  0.4294425  0.5454157  0.2467569    0.00000       Uiso       1.00
       H29          H  0.4304725  0.5461401  0.2794070    0.00000       Uiso       1.00
       H30          H  0.3602652  0.5326675  0.3086828    0.00000       Uiso       1.00
      C585          C  0.2413495  0.5403417  0.3757331    0.00000       Uiso       1.00
      C586          C  0.2602273  0.5415006  0.3570160    0.00000       Uiso       1.00
      C587          C  0.2608308  0.5437141  0.3390482    0.00000       Uiso       1.00
      C588          C  0.2794868  0.5437253  0.3200034    0.00000       Uiso       1.00
      C589          C  0.2975272  0.5402728  0.3180026    0.00000       Uiso       1.00
      C590          C  0.2964295  0.5377539  0.3362017    0.00000       Uiso       1.00
      C591          C  0.2787866  0.5398853  0.3562846    0.00000       Uiso       1.00
       O15          O  0.2215653  0.5408109  0.3787323    0.00000       Uiso       1.00
       H31          H  0.2467372  0.5454459  0.3398530    0.00000       Uiso       1.00
       H32          H  0.2794058  0.5462113  0.3068953    0.00000       Uiso       1.00
       H33          H  0.3086935  0.5327023  0.3343145    0.00000       Uiso       1.00
      C592          C  0.2404528  0.5374874  0.3930492    0.00000       Uiso       1.00
      C593          C  0.2588029  0.5369644  0.3934631    0.00000       Uiso       1.00
      C594          C  0.2579695  0.5345746  0.4114453    0.00000       Uiso       1.00
      C595          C  0.2767599  0.5349272  0.4119138    0.00000       Uiso       1.00
      C596          C  0.2971853  0.5389509  0.3949593    0.00000       Uiso       1.00
      C597          C  0.2977560  0.5418146  0.3772350    0.00000       Uiso       1.00
      C598          C  0.2785939  0.5392531  0.3753471    0.00000       Uiso       1.00
       O16          O  0.2200134  0.5358602  0.4095520    0.00000       Uiso       1.00
       H34          H  0.2426317  0.5323459  0.4251237    0.00000       Uiso       1.00
       H35          H  0.2750405  0.5321989  0.4257740    0.00000       Uiso       1.00
       H36          H  0.3134021  0.5473430  0.3654376    0.00000       Uiso       1.00
      C599          C  0.3745894  0.5375450  0.2404841    0.00000       Uiso       1.00
      C600          C  0.3553090  0.5370425  0.2588420    0.00000       Uiso       1.00
      C601          C  0.3357803  0.5347001  0.2580271    0.00000       Uiso       1.00
      C602          C  0.3168818  0.5350673  0.2768236    0.00000       Uiso       1.00
      C603          C  0.3174292  0.5390542  0.2972397    0.00000       Uiso       1.00
      C604          C  0.3374385  0.5418736  0.2977912    0.00000       Uiso       1.00
      C605          C  0.3559176  0.5393011  0.2786222    0.00000       Uiso       1.00
       O17          O  0.3768993  0.5359245  0.2200477    0.00000       Uiso       1.00
       H37          H  0.3352093  0.5324870  0.2426952    0.00000       Uiso       1.00
       H38          H  0.3020211  0.5323719  0.2751116    0.00000       Uiso       1.00
       H39          H  0.3391289  0.5473859  0.3134282    0.00000       Uiso       1.00
      C606          C  0.3930310  0.5374849  0.3745897    0.00000       Uiso       1.00
      C607          C  0.3934417  0.5369678  0.3553082    0.00000       Uiso       1.00
      C608          C  0.4114456  0.5346318  0.3357837    0.00000       Uiso       1.00
      C609          C  0.4119194  0.5350021  0.3168847    0.00000       Uiso       1.00
      C610          C  0.3949369  0.5389776  0.3174263    0.00000       Uiso       1.00
      C611          C  0.3771852  0.5417813  0.3374317    0.00000       Uiso       1.00
      C612          C  0.3753058  0.5392140  0.3559133    0.00000       Uiso       1.00
       O18          O  0.4095505  0.5358885  0.3769011    0.00000       Uiso       1.00
       H40          H  0.4251368  0.5324273  0.3352212    0.00000       Uiso       1.00
       H41          H  0.4258063  0.5323209  0.3020305    0.00000       Uiso       1.00
       H42          H  0.3653618  0.5472826  0.3391182    0.00000       Uiso       1.00
        B7          B  0.4002623  0.5379677  0.4001494    0.00000       Uiso       1.00
        B8          B  0.4001428  0.5379843  0.2081619    0.00000       Uiso       1.00
        B9          B  0.2081440  0.5379637  0.4002710    0.00000       Uiso       1.00
      C613          C  0.3938524  0.2261083  0.3757061    0.00000       Uiso       1.00
      C614          C  0.3948435  0.2072396  0.3569750    0.00000       Uiso       1.00
      C615          C  0.4144154  0.2066397  0.3389970    0.00000       Uiso       1.00
      C616          C  0.4148069  0.1879911  0.3199470    0.00000       Uiso       1.00
      C617          C  0.3953132  0.1699534  0.3179488    0.00000       Uiso       1.00
      C618          C  0.3756980  0.1710507  0.3361503    0.00000       Uiso       1.00
      C619          C  0.3753979  0.1886813  0.3562406    0.00000       Uiso       1.00
       O19          O  0.4111054  0.2458939  0.3787118    0.00000       Uiso       1.00
       H43          H  0.4294421  0.2207237  0.3397980    0.00000       Uiso       1.00
       H44          H  0.4304793  0.1880715  0.3068359    0.00000       Uiso       1.00
       H45          H  0.3602683  0.1587915  0.3342614    0.00000       Uiso       1.00
      C620          C  0.2413610  0.0917152  0.3938623    0.00000       Uiso       1.00
      C621          C  0.2602355  0.1104414  0.3948559    0.00000       Uiso       1.00
      C622          C  0.2608359  0.1284264  0.4144235    0.00000       Uiso       1.00
      C623          C  0.2794845  0.1474770  0.4148093    0.00000       Uiso       1.00
      C624          C  0.2975197  0.1494722  0.3953136    0.00000       Uiso       1.00
      C625          C  0.2964240  0.1312577  0.3757056    0.00000       Uiso       1.00
      C626          C  0.2787948  0.1111670  0.3754127    0.00000       Uiso       1.00
       O20          O  0.2215669  0.0887252  0.4111098    0.00000       Uiso       1.00
       H46          H  0.2467503  0.1276372  0.4294492    0.00000       Uiso       1.00
       H47          H  0.2794004  0.1605928  0.4304792    0.00000       Uiso       1.00
       H48          H  0.3086761  0.1331339  0.3602717    0.00000       Uiso       1.00
      C627          C  0.3757263  0.0735942  0.2413559    0.00000       Uiso       1.00
      C628          C  0.3570092  0.0725960  0.2602337    0.00000       Uiso       1.00
      C629          C  0.3390414  0.0530182  0.2608372    0.00000       Uiso       1.00
      C630          C  0.3199967  0.0526182  0.2794932    0.00000       Uiso       1.00
      C631          C  0.3179959  0.0721104  0.2975337    0.00000       Uiso       1.00
      C632          C  0.3361950  0.0917306  0.2964360    0.00000       Uiso       1.00
      C633          C  0.3562779  0.0920392  0.2787930    0.00000       Uiso       1.00
       O21          O  0.3787256  0.0563399  0.2215717    0.00000       Uiso       1.00
       H49          H  0.3398463  0.0379976  0.2467436    0.00000       Uiso       1.00
       H50          H  0.3068886  0.0369431  0.2794122    0.00000       Uiso       1.00
       H51          H  0.3343078  0.1071591  0.3087000    0.00000       Uiso       1.00
      C634          C  0.3930424  0.0928679  0.2404592    0.00000       Uiso       1.00
      C635          C  0.3934563  0.1121548  0.2588093    0.00000       Uiso       1.00
      C636          C  0.4114385  0.1316934  0.2579759    0.00000       Uiso       1.00
      C637          C  0.4119070  0.1505997  0.2767663    0.00000       Uiso       1.00
      C638          C  0.3949525  0.1500469  0.2971918    0.00000       Uiso       1.00
      C639          C  0.3772282  0.1300296  0.2977625    0.00000       Uiso       1.00
      C640          C  0.3753403  0.1115411  0.2786003    0.00000       Uiso       1.00
       O22          O  0.4095452  0.0905585  0.2200198    0.00000       Uiso       1.00
       H52          H  0.4251169  0.1322628  0.2426381    0.00000       Uiso       1.00
       H53          H  0.4257672  0.1654688  0.2750469    0.00000       Uiso       1.00
       H54          H  0.3654308  0.1283499  0.3134086    0.00000       Uiso       1.00
      C641          C  0.2404775  0.0743819  0.3745959    0.00000       Uiso       1.00
      C642          C  0.2588353  0.0739619  0.3553155    0.00000       Uiso       1.00
      C643          C  0.2580205  0.0559607  0.3357868    0.00000       Uiso       1.00
      C644          C  0.2768170  0.0554915  0.3168883    0.00000       Uiso       1.00
      C645          C  0.2972330  0.0724681  0.3174357    0.00000       Uiso       1.00
      C646          C  0.2977845  0.0902093  0.3374449    0.00000       Uiso       1.00
      C647          C  0.2786156  0.0920921  0.3559241    0.00000       Uiso       1.00
       O23          O  0.2200411  0.0578760  0.3769059    0.00000       Uiso       1.00
       H55          H  0.2426886  0.0422710  0.3352158    0.00000       Uiso       1.00
       H56          H  0.2751049  0.0416141  0.3020276    0.00000       Uiso       1.00
       H57          H  0.3134215  0.1020245  0.3391354    0.00000       Uiso       1.00
      C648          C  0.3745829  0.2269891  0.3930376    0.00000       Uiso       1.00
      C649          C  0.3553014  0.2086353  0.3934482    0.00000       Uiso       1.00
      C650          C  0.3357770  0.2094509  0.4114522    0.00000       Uiso       1.00
      C651          C  0.3168781  0.1906555  0.4119261    0.00000       Uiso       1.00
      C652          C  0.3174196  0.1702389  0.3949435    0.00000       Uiso       1.00
      C653          C  0.3374250  0.1696889  0.3771918    0.00000       Uiso       1.00
      C654          C  0.3559065  0.1888584  0.3753124    0.00000       Uiso       1.00
       O24          O  0.3768944  0.2474164  0.4095571    0.00000       Uiso       1.00
       H58          H  0.3352145  0.2247840  0.4251435    0.00000       Uiso       1.00
       H59          H  0.3020238  0.1923692  0.4258129    0.00000       Uiso       1.00
       H60          H  0.3391115  0.1540508  0.3653684    0.00000       Uiso       1.00
       B10          B  0.4001426  0.2592973  0.4002689    0.00000       Uiso       1.00
       B11          B  0.2081554  0.0671739  0.4001494    0.00000       Uiso       1.00
       B12          B  0.4002642  0.0673045  0.2081503    0.00000       Uiso       1.00
       B13          B  0.7375169  0.5959563  0.8714907    0.00000       Uiso       1.00
       B14          B  0.8714832  0.5959563  0.7375242    0.00000       Uiso       1.00
       B15          B  0.8714833  0.7299227  0.8714907    0.00000       Uiso       1.00
      C655          C  0.8081103  0.6208565  0.8272868    0.00000       Uiso       1.00
      C656          C  0.7701370  0.6025807  0.8465986    0.00000       Uiso       1.00
       H61          H  0.7870392  0.5867091  0.8141378    0.00000       Uiso       1.00
       O25          O  0.7501397  0.5856217  0.8489759    0.00000       Uiso       1.00
      C657          C  0.7885826  0.6020302  0.8278345    0.00000       Uiso       1.00
      C658          C  0.8465831  0.6401603  0.8081178    0.00000       Uiso       1.00
      C659          C  0.8648589  0.6208484  0.7701443    0.00000       Uiso       1.00
       H62          H  0.8807303  0.6533092  0.7870466    0.00000       Uiso       1.00
       O26          O  0.8818178  0.6184711  0.7501470    0.00000       Uiso       1.00
      C660          C  0.8654093  0.6396124  0.7885900    0.00000       Uiso       1.00
      C661          C  0.8272793  0.6593291  0.8465905    0.00000       Uiso       1.00
      C662          C  0.8465912  0.6973026  0.8648663    0.00000       Uiso       1.00
       H63          H  0.8141304  0.6804004  0.8807378    0.00000       Uiso       1.00
       O27          O  0.8489684  0.7172999  0.8818253    0.00000       Uiso       1.00
      C663          C  0.8278270  0.6788569  0.8654168    0.00000       Uiso       1.00
      C664          C  0.8272792  0.6208565  0.8081178    0.00000       Uiso       1.00
      C665          C  0.8465912  0.6025807  0.7701443    0.00000       Uiso       1.00
       O28          O  0.8489683  0.5856217  0.7501470    0.00000       Uiso       1.00
       H64          H  0.8141303  0.5867091  0.7870466    0.00000       Uiso       1.00
      C666          C  0.8278270  0.6020302  0.7885900    0.00000       Uiso       1.00
      C667          C  0.8081104  0.6401602  0.8465905    0.00000       Uiso       1.00
      C668          C  0.7701370  0.6208484  0.8648663    0.00000       Uiso       1.00
       H65          H  0.7870392  0.6533092  0.8807378    0.00000       Uiso       1.00
       O29          O  0.7501397  0.6184711  0.8818253    0.00000       Uiso       1.00
      C669          C  0.7885826  0.6396125  0.8654168    0.00000       Uiso       1.00
      C670          C  0.8465830  0.6593291  0.8272868    0.00000       Uiso       1.00
      C671          C  0.8648589  0.6973026  0.8465986    0.00000       Uiso       1.00
       H66          H  0.8807303  0.6804003  0.8141378    0.00000       Uiso       1.00
       O30          O  0.8818178  0.7172999  0.8489759    0.00000       Uiso       1.00
      C672          C  0.8654093  0.6788568  0.8278345    0.00000       Uiso       1.00
      C673          C  0.9271358  0.2261086  0.3938593    0.00000       Uiso       1.00
      C674          C  0.9260070  0.2072399  0.3948504    0.00000       Uiso       1.00
      C675          C  0.9238132  0.2066400  0.4144224    0.00000       Uiso       1.00
      C676          C  0.9238230  0.1879914  0.4148139    0.00000       Uiso       1.00
      C677          C  0.9272773  0.1699537  0.3953201    0.00000       Uiso       1.00
      C678          C  0.9297882  0.1710509  0.3757050    0.00000       Uiso       1.00
      C679          C  0.9276288  0.1886816  0.3754047    0.00000       Uiso       1.00
       O31          O  0.9266627  0.2458941  0.4111123    0.00000       Uiso       1.00
       H67          H  0.9220694  0.2207240  0.4294491    0.00000       Uiso       1.00
       H68          H  0.9213422  0.1880718  0.4304864    0.00000       Uiso       1.00
       H69          H  0.9348478  0.1587918  0.3602752    0.00000       Uiso       1.00
      C680          C  0.9270778  0.0917154  0.2413678    0.00000       Uiso       1.00
      C681          C  0.9259358  0.1104417  0.2602423    0.00000       Uiso       1.00
      C682          C  0.9237530  0.1284266  0.2608427    0.00000       Uiso       1.00
      C683          C  0.9237693  0.1474773  0.2794913    0.00000       Uiso       1.00
      C684          C  0.9272248  0.1494724  0.2975266    0.00000       Uiso       1.00
      C685          C  0.9297140  0.1312580  0.2964308    0.00000       Uiso       1.00
      C686          C  0.9275454  0.1111673  0.2788016    0.00000       Uiso       1.00
       O32          O  0.9266344  0.0887255  0.2215737    0.00000       Uiso       1.00
       H70          H  0.9220237  0.1276374  0.2467571    0.00000       Uiso       1.00
       H71          H  0.9212993  0.1605930  0.2794071    0.00000       Uiso       1.00
       H72          H  0.9347719  0.1331341  0.3086830    0.00000       Uiso       1.00
      C687          C  0.9270977  0.0735945  0.3757333    0.00000       Uiso       1.00
      C688          C  0.9259388  0.0725962  0.3570162    0.00000       Uiso       1.00
      C689          C  0.9237253  0.0530185  0.3390484    0.00000       Uiso       1.00
      C690          C  0.9237141  0.0526185  0.3200036    0.00000       Uiso       1.00
      C691          C  0.9271666  0.0721107  0.3180028    0.00000       Uiso       1.00
      C692          C  0.9296854  0.0917309  0.3362019    0.00000       Uiso       1.00
      C693          C  0.9275541  0.0920395  0.3562848    0.00000       Uiso       1.00
       O33          O  0.9266284  0.0563402  0.3787325    0.00000       Uiso       1.00
       H73          H  0.9219935  0.0379979  0.3398533    0.00000       Uiso       1.00
       H74          H  0.9212281  0.0369434  0.3068955    0.00000       Uiso       1.00
       H75          H  0.9347371  0.1071594  0.3343147    0.00000       Uiso       1.00
      C694          C  0.9299521  0.0928682  0.3930494    0.00000       Uiso       1.00
      C695          C  0.9304749  0.1121551  0.3934633    0.00000       Uiso       1.00
      C696          C  0.9328647  0.1316937  0.4114454    0.00000       Uiso       1.00
      C697          C  0.9325122  0.1506000  0.4119140    0.00000       Uiso       1.00
      C698          C  0.9284884  0.1500472  0.3949595    0.00000       Uiso       1.00
      C699          C  0.9256248  0.1300299  0.3772352    0.00000       Uiso       1.00
      C700          C  0.9281863  0.1115414  0.3753473    0.00000       Uiso       1.00
       O34          O  0.9315792  0.0905588  0.4095522    0.00000       Uiso       1.00
       H76          H  0.9350936  0.1322631  0.4251239    0.00000       Uiso       1.00
       H77          H  0.9352406  0.1654691  0.4257742    0.00000       Uiso       1.00
       H78          H  0.9200964  0.1283502  0.3654377    0.00000       Uiso       1.00
      C701          C  0.9298943  0.0743821  0.2404843    0.00000       Uiso       1.00
      C702          C  0.9303969  0.0739621  0.2588421    0.00000       Uiso       1.00
      C703          C  0.9327393  0.0559610  0.2580273    0.00000       Uiso       1.00
      C704          C  0.9323721  0.0554918  0.2768238    0.00000       Uiso       1.00
      C705          C  0.9283851  0.0724684  0.2972399    0.00000       Uiso       1.00
      C706          C  0.9255658  0.0902096  0.2977914    0.00000       Uiso       1.00
      C707          C  0.9281383  0.0920923  0.2786224    0.00000       Uiso       1.00
       O35          O  0.9315149  0.0578762  0.2200479    0.00000       Uiso       1.00
       H79          H  0.9349524  0.0422712  0.2426954    0.00000       Uiso       1.00
       H80          H  0.9350674  0.0416144  0.2751117    0.00000       Uiso       1.00
       H81          H  0.9200535  0.1020248  0.3134284    0.00000       Uiso       1.00
      C708          C  0.9299545  0.2269894  0.3745899    0.00000       Uiso       1.00
      C709          C  0.9304716  0.2086356  0.3553083    0.00000       Uiso       1.00
      C710          C  0.9328077  0.2094511  0.3357839    0.00000       Uiso       1.00
      C711          C  0.9324373  0.1906557  0.3168849    0.00000       Uiso       1.00
      C712          C  0.9284618  0.1702392  0.3174264    0.00000       Uiso       1.00
      C713          C  0.9256581  0.1696891  0.3374318    0.00000       Uiso       1.00
      C714          C  0.9282255  0.1888587  0.3559134    0.00000       Uiso       1.00
       O36          O  0.9315509  0.2474167  0.3769012    0.00000       Uiso       1.00
       H82          H  0.9350121  0.2247843  0.3352214    0.00000       Uiso       1.00
       H83          H  0.9351185  0.1923694  0.3020307    0.00000       Uiso       1.00
       H84          H  0.9201568  0.1540511  0.3391185    0.00000       Uiso       1.00
       B16          B  0.9294718  0.2592976  0.4001496    0.00000       Uiso       1.00
       B17          B  0.9294551  0.0671741  0.2081621    0.00000       Uiso       1.00
       B18          B  0.9294757  0.0673048  0.4002712    0.00000       Uiso       1.00
       B19          B  0.8714832  0.0099048  0.8714907    0.00000       Uiso       1.00
       B20          B  0.8714832  0.0099048  0.7375241    0.00000       Uiso       1.00
       B21          B  0.7375169  0.0099048  0.8714907    0.00000       Uiso       1.00
      C715          C  0.8465831  0.0113943  0.8272867    0.00000       Uiso       1.00
      C716          C  0.8648588  0.0110084  0.8465986    0.00000       Uiso       1.00
       H85          H  0.8807304  0.0113214  0.8141377    0.00000       Uiso       1.00
       O37          O  0.8818178  0.0103473  0.8489758    0.00000       Uiso       1.00
      C717          C  0.8654094  0.0112405  0.8278344    0.00000       Uiso       1.00
      C718          C  0.8272794  0.0113942  0.8081177    0.00000       Uiso       1.00
      C719          C  0.8465913  0.0110084  0.7701442    0.00000       Uiso       1.00
       H86          H  0.8141304  0.0113214  0.7870464    0.00000       Uiso       1.00
       O38          O  0.8489684  0.0103473  0.7501469    0.00000       Uiso       1.00
      C720          C  0.8278271  0.0112405  0.7885900    0.00000       Uiso       1.00
      C721          C  0.8081105  0.0113943  0.8465905    0.00000       Uiso       1.00
      C722          C  0.7701369  0.0110084  0.8648662    0.00000       Uiso       1.00
       H87          H  0.7870392  0.0113214  0.8807378    0.00000       Uiso       1.00
       O39          O  0.7501397  0.0103473  0.8818252    0.00000       Uiso       1.00
      C723          C  0.7885827  0.0112405  0.8654166    0.00000       Uiso       1.00
      C724          C  0.8465831  0.0113942  0.8081177    0.00000       Uiso       1.00
      C725          C  0.8648588  0.0110084  0.7701442    0.00000       Uiso       1.00
       O40          O  0.8818178  0.0103473  0.7501469    0.00000       Uiso       1.00
       H88          H  0.8807304  0.0113214  0.7870464    0.00000       Uiso       1.00
      C726          C  0.8654093  0.0112405  0.7885900    0.00000       Uiso       1.00
      C727          C  0.8272793  0.0113943  0.8465905    0.00000       Uiso       1.00
      C728          C  0.8465912  0.0110084  0.8648663    0.00000       Uiso       1.00
       H89          H  0.8141304  0.0113214  0.8807378    0.00000       Uiso       1.00
       O41          O  0.8489684  0.0103473  0.8818252    0.00000       Uiso       1.00
      C729          C  0.8278271  0.0112404  0.8654166    0.00000       Uiso       1.00
      C730          C  0.8081105  0.0113943  0.8272867    0.00000       Uiso       1.00
      C731          C  0.7701369  0.0110084  0.8465986    0.00000       Uiso       1.00
       H90          H  0.7870392  0.0113214  0.8141377    0.00000       Uiso       1.00
       O42          O  0.7501397  0.0103473  0.8489758    0.00000       Uiso       1.00
      C732          C  0.7885827  0.0112405  0.8278344    0.00000       Uiso       1.00
      C733          C  0.3938526  0.0917407  0.9271432    0.00000       Uiso       1.00
      C734          C  0.3948437  0.1104718  0.9260145    0.00000       Uiso       1.00
      C735          C  0.4144156  0.1284497  0.9238206    0.00000       Uiso       1.00
      C736          C  0.4148071  0.1474997  0.9238304    0.00000       Uiso       1.00
      C737          C  0.3953134  0.1494979  0.9272847    0.00000       Uiso       1.00
      C738          C  0.3756983  0.1312965  0.9297957    0.00000       Uiso       1.00
      C739          C  0.3753980  0.1112061  0.9276363    0.00000       Uiso       1.00
       O43          O  0.4111056  0.0887350  0.9266701    0.00000       Uiso       1.00
       H91          H  0.4294423  0.1276487  0.9220769    0.00000       Uiso       1.00
       H92          H  0.4304796  0.1606108  0.9213496    0.00000       Uiso       1.00
       H93          H  0.3602685  0.1331854  0.9348552    0.00000       Uiso       1.00
      C740          C  0.2413612  0.0735845  0.9270852    0.00000       Uiso       1.00
      C741          C  0.2602357  0.0725908  0.9259433    0.00000       Uiso       1.00
      C742          C  0.2608361  0.0530234  0.9237604    0.00000       Uiso       1.00
      C743          C  0.2794847  0.0526376  0.9237767    0.00000       Uiso       1.00
      C744          C  0.2975200  0.0721332  0.9272323    0.00000       Uiso       1.00
      C745          C  0.2964242  0.0917412  0.9297215    0.00000       Uiso       1.00
      C746          C  0.2787950  0.0920341  0.9275529    0.00000       Uiso       1.00
       O44          O  0.2215672  0.0563370  0.9266419    0.00000       Uiso       1.00
       H94          H  0.2467506  0.0379977  0.9220312    0.00000       Uiso       1.00
       H95          H  0.2794006  0.0369677  0.9213067    0.00000       Uiso       1.00
       H96          H  0.3086763  0.1071750  0.9347794    0.00000       Uiso       1.00
      C747          C  0.3757266  0.2260907  0.9271052    0.00000       Uiso       1.00
      C748          C  0.3570095  0.2072129  0.9259462    0.00000       Uiso       1.00
      C749          C  0.3390417  0.2066094  0.9237327    0.00000       Uiso       1.00
      C750          C  0.3199969  0.1879534  0.9237216    0.00000       Uiso       1.00
      C751          C  0.3179962  0.1699130  0.9271740    0.00000       Uiso       1.00
      C752          C  0.3361952  0.1710107  0.9296929    0.00000       Uiso       1.00
      C753          C  0.3562782  0.1886536  0.9275615    0.00000       Uiso       1.00
       O45          O  0.3787258  0.2458749  0.9266359    0.00000       Uiso       1.00
       H97          H  0.3398466  0.2207031  0.9220009    0.00000       Uiso       1.00
       H98          H  0.3068889  0.1880345  0.9212355    0.00000       Uiso       1.00
       H99          H  0.3343081  0.1587467  0.9347446    0.00000       Uiso       1.00
      C754          C  0.3930426  0.2269874  0.9299595    0.00000       Uiso       1.00
      C755          C  0.3934566  0.2086373  0.9304824    0.00000       Uiso       1.00
      C756          C  0.4114387  0.2094707  0.9328722    0.00000       Uiso       1.00
      C757          C  0.4119073  0.1906804  0.9325197    0.00000       Uiso       1.00
      C758          C  0.3949528  0.1702549  0.9284959    0.00000       Uiso       1.00
      C759          C  0.3772284  0.1696842  0.9256322    0.00000       Uiso       1.00
      C760          C  0.3753406  0.1888463  0.9281937    0.00000       Uiso       1.00
       O46          O  0.4095455  0.2474268  0.9315866    0.00000       Uiso       1.00
      H100          H  0.4251171  0.2248085  0.9351010    0.00000       Uiso       1.00
      H101          H  0.4257674  0.1923998  0.9352480    0.00000       Uiso       1.00
      H102          H  0.3654311  0.1540381  0.9201038    0.00000       Uiso       1.00
      C761          C  0.2404777  0.0928509  0.9299018    0.00000       Uiso       1.00
      C762          C  0.2588356  0.1121312  0.9304044    0.00000       Uiso       1.00
      C763          C  0.2580207  0.1316599  0.9327467    0.00000       Uiso       1.00
      C764          C  0.2768172  0.1505584  0.9323795    0.00000       Uiso       1.00
      C765          C  0.2972332  0.1500110  0.9283927    0.00000       Uiso       1.00
      C766          C  0.2977847  0.1300018  0.9255732    0.00000       Uiso       1.00
      C767          C  0.2786158  0.1115227  0.9281458    0.00000       Uiso       1.00
       O47          O  0.2200414  0.0905409  0.9315224    0.00000       Uiso       1.00
      H103          H  0.2426888  0.1322309  0.9349599    0.00000       Uiso       1.00
      H104          H  0.2751051  0.1654191  0.9350749    0.00000       Uiso       1.00
      H105          H  0.3134218  0.1283114  0.9200609    0.00000       Uiso       1.00
      C768          C  0.3745831  0.0744092  0.9299620    0.00000       Uiso       1.00
      C769          C  0.3553016  0.0739985  0.9304790    0.00000       Uiso       1.00
      C770          C  0.3357772  0.0559946  0.9328151    0.00000       Uiso       1.00
      C771          C  0.3168783  0.0555208  0.9324448    0.00000       Uiso       1.00
      C772          C  0.3174198  0.0725034  0.9284693    0.00000       Uiso       1.00
      C773          C  0.3374252  0.0902550  0.9256655    0.00000       Uiso       1.00
      C774          C  0.3559068  0.0921344  0.9282329    0.00000       Uiso       1.00
       O48          O  0.3768945  0.0578897  0.9315584    0.00000       Uiso       1.00
      H106          H  0.3352147  0.0423034  0.9350196    0.00000       Uiso       1.00
      H107          H  0.3020240  0.0416340  0.9351259    0.00000       Uiso       1.00
      H108          H  0.3391117  0.1020784  0.9201643    0.00000       Uiso       1.00
       B22          B  0.4001428  0.0671779  0.9294792    0.00000       Uiso       1.00
       B23          B  0.2081556  0.0672974  0.9294626    0.00000       Uiso       1.00
       B24          B  0.4002644  0.2592963  0.9294831    0.00000       Uiso       1.00
