data_95
_audit_creation_date              0000-00-00
_audit_creation_method            'LanYouShi'
_symmetry_space_group_name_H-M    'P1'
_cell_length_a                    66.9179001
_cell_length_b                    66.9181976
_cell_length_c                    66.9181976
_cell_angle_alpha                 119.9997025
_cell_angle_beta                  60.0001984
_cell_angle_gamma                 119.9999008
loop_
_atom_site_label
_atom_site_type_symbol
_atom_site_fract_x
_atom_site_fract_y
_atom_site_fract_z
_atom_site_U_iso_or_equiv
_atom_site_adp_type
_atom_site_occupancy
        C1          C  0.5971133  0.7374818  0.5971149    0.00000       Uiso       1.00
        C2          C  0.6096608  0.7247724  0.5736558    0.00000       Uiso       1.00
        C3          C  0.5988821  0.6992888  0.5628800    0.00000       Uiso       1.00
        C4          C  0.5736541  0.7247722  0.6096622    0.00000       Uiso       1.00
        C5          C  0.5627748  0.6993709  0.5989122    0.00000       Uiso       1.00
        C6          C  0.5751712  0.6859625  0.5752949    0.00000       Uiso       1.00
        H1          H  0.5368458  0.4556105  0.3097121    0.00000       Uiso       1.00
        H2          H  0.3100818  0.4550969  0.5356693    0.00000       Uiso       1.00
        H3          H  0.5631340  0.7348629  0.6287863    0.00000       Uiso       1.00
        C7          C  0.5432967  0.4029304  0.2625638    0.00000       Uiso       1.00
        C8          C  0.5414990  0.4263896  0.2752732    0.00000       Uiso       1.00
        C9          C  0.5377268  0.4372690  0.3006743    0.00000       Uiso       1.00
       C10          C  0.5414991  0.3903830  0.2752733    0.00000       Uiso       1.00
       C11          C  0.5375699  0.4011618  0.3007568    0.00000       Uiso       1.00
       C12          C  0.5355388  0.4248722  0.3140820    0.00000       Uiso       1.00
        H4          H  0.6093804  0.6899574  0.5449440    0.00000       Uiso       1.00
        H5          H  0.6090952  0.4631967  0.5444356    0.00000       Uiso       1.00
        H6          H  0.5429856  0.4369094  0.2651823    0.00000       Uiso       1.00
       C13          C  0.2625608  0.4029292  0.5432976    0.00000       Uiso       1.00
       C14          C  0.2752704  0.3903820  0.5415001    0.00000       Uiso       1.00
       C15          C  0.3006720  0.4011302  0.5377250    0.00000       Uiso       1.00
       C16          C  0.2752702  0.4263885  0.5414999    0.00000       Uiso       1.00
       C17          C  0.3007543  0.4371626  0.5375668    0.00000       Uiso       1.00
       C18          C  0.3140808  0.4247455  0.5355337    0.00000       Uiso       1.00
        H7          H  0.5449439  0.4643700  0.6093839    0.00000       Uiso       1.00
        H8          H  0.5444330  0.6903328  0.6090957    0.00000       Uiso       1.00
        H9          H  0.2651796  0.3712579  0.5429868    0.00000       Uiso       1.00
       C19          C  0.5971143  0.4567479  0.5971162    0.00000       Uiso       1.00
       C20          C  0.5736549  0.4585454  0.6096634    0.00000       Uiso       1.00
       C21          C  0.5628789  0.4624740  0.5988845    0.00000       Uiso       1.00
       C22          C  0.6096618  0.4585456  0.5736570    0.00000       Uiso       1.00
       C23          C  0.5989113  0.4623165  0.5627772    0.00000       Uiso       1.00
       C24          C  0.5752938  0.4645036  0.5751735    0.00000       Uiso       1.00
       H10          H  0.3097120  0.3909453  0.5368407    0.00000       Uiso       1.00
       H11          H  0.5356752  0.3906615  0.3100870    0.00000       Uiso       1.00
       C25          C  0.5000214  0.5000217  0.5000201    0.00000       Uiso       1.00
       H12          H  0.6287859  0.4570591  0.5631372    0.00000       Uiso       1.00
        N1          N  0.6349919  0.7381383  0.5597216    0.00000       Uiso       1.00
       H13          H  0.6412964  0.7262621  0.5432317    0.00000       Uiso       1.00
       H14          H  0.6342986  0.7515210  0.5573534    0.00000       Uiso       1.00
        N2          N  0.5597207  0.4565762  0.6349944    0.00000       Uiso       1.00
       H15          H  0.5432307  0.4582670  0.6412988    0.00000       Uiso       1.00
       H16          H  0.5573527  0.4401323  0.6343012    0.00000       Uiso       1.00
        N3          N  0.2619043  0.4403226  0.5434689    0.00000       Uiso       1.00
       H17          H  0.2737805  0.4568125  0.5417780    0.00000       Uiso       1.00
       H18          H  0.2544540  0.4307608  0.5300353    0.00000       Uiso       1.00
        N4          N  0.5434683  0.3650522  0.2619076    0.00000       Uiso       1.00
       H19          H  0.5417775  0.3587477  0.2737839    0.00000       Uiso       1.00
       H20          H  0.5300347  0.3537301  0.2544573    0.00000       Uiso       1.00
       C26          C  0.5635253  0.6584397  0.5639082    0.00000       Uiso       1.00
       C27          C  0.5684403  0.6470377  0.5382659    0.00000       Uiso       1.00
       C28          C  0.5577577  0.6214589  0.5276575    0.00000       Uiso       1.00
       C29          C  0.5473350  0.6432337  0.5786202    0.00000       Uiso       1.00
       C30          C  0.5363715  0.6176914  0.5682582    0.00000       Uiso       1.00
       C31          C  0.5416200  0.6067343  0.5426929    0.00000       Uiso       1.00
       H21          H  0.5435008  0.6511420  0.5982106    0.00000       Uiso       1.00
       H22          H  0.5803680  0.6580901  0.5264676    0.00000       Uiso       1.00
       C32          C  0.5310479  0.4365184  0.3416031    0.00000       Uiso       1.00
       C33          C  0.5173109  0.4527001  0.3568091    0.00000       Uiso       1.00
       C34          C  0.5130944  0.4636648  0.3823508    0.00000       Uiso       1.00
       C35          C  0.5403832  0.4316144  0.3530041    0.00000       Uiso       1.00
       C36          C  0.5360957  0.4422981  0.3785811    0.00000       Uiso       1.00
       C37          C  0.5224642  0.4584258  0.3933062    0.00000       Uiso       1.00
       H23          H  0.5513153  0.4196962  0.3419561    0.00000       Uiso       1.00
       H24          H  0.5094550  0.4565268  0.3489005    0.00000       Uiso       1.00
       C38          C  0.3416035  0.4361276  0.5310397    0.00000       Uiso       1.00
       C39          C  0.3568073  0.4214121  0.5173114    0.00000       Uiso       1.00
       C40          C  0.3823521  0.4317728  0.5130943    0.00000       Uiso       1.00
       C41          C  0.3530061  0.4617685  0.5403651    0.00000       Uiso       1.00
       C42          C  0.3785832  0.4723742  0.5360764    0.00000       Uiso       1.00
       C43          C  0.3933093  0.4573407  0.5224553    0.00000       Uiso       1.00
       H25          H  0.3419607  0.4735717  0.5512897    0.00000       Uiso       1.00
       H26          H  0.3488903  0.4018185  0.5094646    0.00000       Uiso       1.00
       C44          C  0.5639075  0.4689937  0.5635274    0.00000       Uiso       1.00
       C45          C  0.5382664  0.4596607  0.5684344    0.00000       Uiso       1.00
       C46          C  0.5276580  0.4639505  0.5577537    0.00000       Uiso       1.00
       C47          C  0.5786191  0.4827285  0.5473442    0.00000       Uiso       1.00
       C48          C  0.5682571  0.4869445  0.5363799    0.00000       Uiso       1.00
       C49          C  0.5426928  0.4775797  0.5416231    0.00000       Uiso       1.00
       H27          H  0.5982090  0.4905806  0.5435157    0.00000       Uiso       1.00
       H28          H  0.5264720  0.4487290  0.5803536    0.00000       Uiso       1.00
       C50          C  0.5021840  0.4548908  0.5629560    0.00000       Uiso       1.00
       C51          C  0.4917642  0.4595000  0.5525565    0.00000       Uiso       1.00
       C52          C  0.5451629  0.4371016  0.3897922    0.00000       Uiso       1.00
       C53          C  0.5405570  0.4475035  0.4152195    0.00000       Uiso       1.00
       H29          H  0.5557162  0.4248056  0.3788790    0.00000       Uiso       1.00
       H30          H  0.5476418  0.4429248  0.4232680    0.00000       Uiso       1.00
       H31          H  0.4902521  0.4443391  0.5752528    0.00000       Uiso       1.00
       H32          H  0.4720529  0.4524210  0.5571362    0.00000       Uiso       1.00
       C54          C  0.5308560  0.5809788  0.5321358    0.00000       Uiso       1.00
       C55          C  0.5364573  0.5699248  0.5065504    0.00000       Uiso       1.00
       C56          C  0.5262732  0.5442275  0.4961027    0.00000       Uiso       1.00
       C57          C  0.5148132  0.5662758  0.5471617    0.00000       Uiso       1.00
       C58          C  0.5045019  0.5406969  0.5365486    0.00000       Uiso       1.00
       C59          C  0.5098080  0.5289435  0.5108222    0.00000       Uiso       1.00
       H33          H  0.4887080  0.5074474  0.4704243    0.00000       Uiso       1.00
       H34          H  0.4636888  0.5236481  0.5280342    0.00000       Uiso       1.00
       C60          C  0.5180317  0.4691901  0.4190607    0.00000       Uiso       1.00
       C61          C  0.5043369  0.4852258  0.4337654    0.00000       Uiso       1.00
       C62          C  0.4996832  0.4955389  0.4593452    0.00000       Uiso       1.00
       C63          C  0.5269730  0.4635987  0.4301141    0.00000       Uiso       1.00
       C64          C  0.5219057  0.4737819  0.4558122    0.00000       Uiso       1.00
       C65          C  0.5083554  0.4902368  0.4710979    0.00000       Uiso       1.00
       H35          H  0.5319572  0.5363519  0.4763938    0.00000       Uiso       1.00
       H36          H  0.5483578  0.5113083  0.4925727    0.00000       Uiso       1.00
       C66          C  0.4190629  0.4679019  0.5180251    0.00000       Uiso       1.00
       C67          C  0.4337667  0.4528758  0.5043413    0.00000       Uiso       1.00
       C68          C  0.4593462  0.4634909  0.4996884    0.00000       Uiso       1.00
       C69          C  0.4301159  0.4934896  0.5269560    0.00000       Uiso       1.00
       C70          C  0.4558142  0.5039391  0.5218888    0.00000       Uiso       1.00
       C71          C  0.4710989  0.4892191  0.5083523    0.00000       Uiso       1.00
       H37          H  0.4763914  0.4719908  0.5319465    0.00000       Uiso       1.00
       H38          H  0.4925859  0.5296195  0.5483540    0.00000       Uiso       1.00
       C72          C  0.5321357  0.4820141  0.5308591    0.00000       Uiso       1.00
       C73          C  0.5065485  0.4730795  0.5364568    0.00000       Uiso       1.00
       C74          C  0.4961012  0.4781477  0.5262727    0.00000       Uiso       1.00
       C75          C  0.5471628  0.4957012  0.5148157    0.00000       Uiso       1.00
       C76          C  0.5365506  0.5003532  0.5045003    0.00000       Uiso       1.00
       C77          C  0.5108229  0.4916885  0.5098083    0.00000       Uiso       1.00
       H39          H  0.4704278  0.4516888  0.4887304    0.00000       Uiso       1.00
       H40          H  0.5280643  0.4681056  0.4636874    0.00000       Uiso       1.00
       C78          C  0.4152211  0.5082738  0.5405290    0.00000       Uiso       1.00
       C79          C  0.3897932  0.4978515  0.5451350    0.00000       Uiso       1.00
       C80          C  0.4226161  0.4274085  0.4951917    0.00000       Uiso       1.00
       C81          C  0.3972520  0.4169997  0.4994830    0.00000       Uiso       1.00
       C82          C  0.5525638  0.5848182  0.4917643    0.00000       Uiso       1.00
       C83          C  0.5629665  0.6102469  0.5021826    0.00000       Uiso       1.00
       C84          C  0.5096446  0.5774276  0.5726298    0.00000       Uiso       1.00
       C85          C  0.5203083  0.6027948  0.5830360    0.00000       Uiso       1.00
       C86          C  0.5726303  0.5048519  0.5096511    0.00000       Uiso       1.00
       C87          C  0.5830344  0.5005584  0.5203192    0.00000       Uiso       1.00
       C88          C  0.4951786  0.4903841  0.4226146    0.00000       Uiso       1.00
       C89          C  0.4994741  0.4797194  0.3972487    0.00000       Uiso       1.00
       H41          H  0.4845125  0.5025886  0.4335542    0.00000       Uiso       1.00
       H42          H  0.4920569  0.4839971  0.3892674    0.00000       Uiso       1.00
       H43          H  0.3892715  0.3973224  0.4920713    0.00000       Uiso       1.00
       H44          H  0.4335545  0.4154775  0.4845343    0.00000       Uiso       1.00
       H45          H  0.4232714  0.5279875  0.5476044    0.00000       Uiso       1.00
       H46          H  0.3788792  0.5097865  0.5556794    0.00000       Uiso       1.00
       H47          H  0.5160245  0.6107810  0.6027128    0.00000       Uiso       1.00
       H48          H  0.4974326  0.5664918  0.5845639    0.00000       Uiso       1.00
       H49          H  0.5571512  0.5767691  0.4720531    0.00000       Uiso       1.00
       H50          H  0.5752718  0.6211654  0.4902513    0.00000       Uiso       1.00
       H51          H  0.6027097  0.5079691  0.5160368    0.00000       Uiso       1.00
       H52          H  0.5845618  0.5155076  0.4974372    0.00000       Uiso       1.00
       C90          C  0.5971137  0.7374818  0.9550956    0.00000       Uiso       1.00
       C91          C  0.5736544  0.7247723  0.9532980    0.00000       Uiso       1.00
       C92          C  0.5628785  0.6992888  0.9493691    0.00000       Uiso       1.00
       C93          C  0.6096612  0.7247725  0.9532982    0.00000       Uiso       1.00
       C94          C  0.5989112  0.6993712  0.9495263    0.00000       Uiso       1.00
       C95          C  0.5752937  0.6859626  0.9473388    0.00000       Uiso       1.00
       H53          H  0.3097086  0.4556092  0.0208955    0.00000       Uiso       1.00
       H54          H  0.5356678  0.4550977  0.0211889    0.00000       Uiso       1.00
       H55          H  0.6287854  0.7348633  0.9547848    0.00000       Uiso       1.00
       C96          C  0.2625599  0.4029289  0.0089131    0.00000       Uiso       1.00
       C97          C  0.2752694  0.4263881  0.0214604    0.00000       Uiso       1.00
       C98          C  0.3006707  0.4372677  0.0107109    0.00000       Uiso       1.00
       C99          C  0.2752705  0.3903819  0.9854539    0.00000       Uiso       1.00
      C100          C  0.3007542  0.4011608  0.9746784    0.00000       Uiso       1.00
      C101          C  0.3140794  0.4248712  0.9870945    0.00000       Uiso       1.00
       H56          H  0.5449424  0.6899572  0.9474754    0.00000       Uiso       1.00
       H57          H  0.5444337  0.4631965  0.7215103    0.00000       Uiso       1.00
       H58          H  0.2651786  0.4369079  0.0405844    0.00000       Uiso       1.00
      C102          C  0.5432964  0.4029303  0.0089142    0.00000       Uiso       1.00
      C103          C  0.5414999  0.3903833  0.9854550    0.00000       Uiso       1.00
      C104          C  0.5377246  0.4011315  0.9745767    0.00000       Uiso       1.00
      C105          C  0.5414987  0.4263895  0.0214615    0.00000       Uiso       1.00
      C106          C  0.5375655  0.4371635  0.0106846    0.00000       Uiso       1.00
      C107          C  0.5355332  0.4247466  0.9869743    0.00000       Uiso       1.00
       H59          H  0.6093825  0.4643703  0.7218866    0.00000       Uiso       1.00
       H60          H  0.6090947  0.6903332  0.9486465    0.00000       Uiso       1.00
       H61          H  0.5429865  0.3712593  0.9749352    0.00000       Uiso       1.00
      C108          C  0.5971144  0.4567479  0.6743621    0.00000       Uiso       1.00
      C109          C  0.6096619  0.4585456  0.6870716    0.00000       Uiso       1.00
      C110          C  0.5988830  0.4624742  0.7125551    0.00000       Uiso       1.00
      C111          C  0.5736550  0.4585454  0.6870715    0.00000       Uiso       1.00
      C112          C  0.5627754  0.4623164  0.7124726    0.00000       Uiso       1.00
      C113          C  0.5751718  0.4645037  0.7258807    0.00000       Uiso       1.00
       H62          H  0.5368402  0.3909465  0.9562362    0.00000       Uiso       1.00
       H63          H  0.3100844  0.3906606  0.9567427    0.00000       Uiso       1.00
      C114          C  0.5000186  0.5000217  0.9118235    0.00000       Uiso       1.00
       H64          H  0.5631351  0.4570588  0.6769807    0.00000       Uiso       1.00
        N5          N  0.5597200  0.7381380  0.9552670    0.00000       Uiso       1.00
       H65          H  0.5432301  0.7262617  0.9535761    0.00000       Uiso       1.00
       H66          H  0.5573519  0.7515206  0.9717108    0.00000       Uiso       1.00
        N6          N  0.6349930  0.4565766  0.6737059    0.00000       Uiso       1.00
       H67          H  0.6412975  0.4582675  0.6855822    0.00000       Uiso       1.00
       H68          H  0.6342998  0.4401328  0.6603233    0.00000       Uiso       1.00
        N7          N  0.5434678  0.4403237  0.0467924    0.00000       Uiso       1.00
       H69          H  0.5417769  0.4568136  0.0530969    0.00000       Uiso       1.00
       H70          H  0.5300341  0.4307618  0.0581145    0.00000       Uiso       1.00
        N8          N  0.2619047  0.3650510  0.9715197    0.00000       Uiso       1.00
       H71          H  0.2737810  0.3587465  0.9550298    0.00000       Uiso       1.00
       H72          H  0.2544545  0.3537289  0.9810815    0.00000       Uiso       1.00
      C115          C  0.5639069  0.6584398  0.9428488    0.00000       Uiso       1.00
      C116          C  0.5382646  0.6470376  0.9521739    0.00000       Uiso       1.00
      C117          C  0.5276561  0.6214589  0.9478863    0.00000       Uiso       1.00
      C118          C  0.5786190  0.6432338  0.9291211    0.00000       Uiso       1.00
      C119          C  0.5682571  0.6176916  0.9249045    0.00000       Uiso       1.00
      C120          C  0.5426915  0.6067344  0.9342642    0.00000       Uiso       1.00
       H73          H  0.5982096  0.6511424  0.9212732    0.00000       Uiso       1.00
       H74          H  0.5264661  0.6580899  0.9630969    0.00000       Uiso       1.00
      C121          C  0.3416007  0.4365177  0.9757106    0.00000       Uiso       1.00
      C122          C  0.3568068  0.4526995  0.9904233    0.00000       Uiso       1.00
      C123          C  0.3823487  0.4636643  0.9800627    0.00000       Uiso       1.00
      C124          C  0.3530017  0.4316136  0.9500704    0.00000       Uiso       1.00
      C125          C  0.3785789  0.4422975  0.9394646    0.00000       Uiso       1.00
      C126          C  0.3933041  0.4584254  0.9544986    0.00000       Uiso       1.00
       H75          H  0.3419536  0.4196954  0.9382683    0.00000       Uiso       1.00
       H76          H  0.3488972  0.4565258  0.0100142    0.00000       Uiso       1.00
      C127          C  0.5310391  0.4361286  0.9753277    0.00000       Uiso       1.00
      C128          C  0.5173106  0.4214129  0.9591368    0.00000       Uiso       1.00
      C129          C  0.5130934  0.4317735  0.9481698    0.00000       Uiso       1.00
      C130          C  0.5403646  0.4617695  0.9802405    0.00000       Uiso       1.00
      C131          C  0.5360758  0.4723750  0.9695577    0.00000       Uiso       1.00
      C132          C  0.5224544  0.4573414  0.9534194    0.00000       Uiso       1.00
       H77          H  0.5512893  0.4735727  0.9921643    0.00000       Uiso       1.00
       H78          H  0.5094637  0.4018193  0.9553071    0.00000       Uiso       1.00
      C133          C  0.5635257  0.4689938  0.7534030    0.00000       Uiso       1.00
      C134          C  0.5684328  0.4596609  0.7648042    0.00000       Uiso       1.00
      C135          C  0.5577523  0.4639507  0.7903829    0.00000       Uiso       1.00
      C136          C  0.5473424  0.4827284  0.7686093    0.00000       Uiso       1.00
      C137          C  0.5363781  0.4869444  0.7941514    0.00000       Uiso       1.00
      C138          C  0.5416214  0.4775797  0.8051078    0.00000       Uiso       1.00
       H79          H  0.5435138  0.4905804  0.7607000    0.00000       Uiso       1.00
       H80          H  0.5803522  0.4487293  0.7537478    0.00000       Uiso       1.00
      C139          C  0.5629547  0.4548911  0.8015949    0.00000       Uiso       1.00
      C140          C  0.5525552  0.4595004  0.8270233    0.00000       Uiso       1.00
      C141          C  0.3897898  0.4371010  0.9139901    0.00000       Uiso       1.00
      C142          C  0.4152173  0.4475030  0.9035707    0.00000       Uiso       1.00
       H81          H  0.3788766  0.4248049  0.9020540    0.00000       Uiso       1.00
       H82          H  0.4232658  0.4429243  0.8838587    0.00000       Uiso       1.00
       H83          H  0.5752516  0.4443396  0.7906784    0.00000       Uiso       1.00
       H84          H  0.5571349  0.4524215  0.8350759    0.00000       Uiso       1.00
      C143          C  0.5321344  0.5809789  0.9298298    0.00000       Uiso       1.00
      C144          C  0.5065489  0.5699248  0.9387600    0.00000       Uiso       1.00
      C145          C  0.4961011  0.5442275  0.9336947    0.00000       Uiso       1.00
      C146          C  0.5471604  0.5662760  0.9161440    0.00000       Uiso       1.00
      C147          C  0.5365473  0.5406972  0.9114896    0.00000       Uiso       1.00
      C148          C  0.5108208  0.5289436  0.9201564    0.00000       Uiso       1.00
       H85          H  0.4704227  0.5074474  0.9601581    0.00000       Uiso       1.00
       H86          H  0.5280331  0.5236486  0.9437681    0.00000       Uiso       1.00
      C149          C  0.4190587  0.4691897  0.9439410    0.00000       Uiso       1.00
      C150          C  0.4337637  0.4852255  0.9589665    0.00000       Uiso       1.00
      C151          C  0.4593436  0.4955387  0.9483536    0.00000       Uiso       1.00
      C152          C  0.4301121  0.4635984  0.9183550    0.00000       Uiso       1.00
      C153          C  0.4558104  0.4737817  0.9079075    0.00000       Uiso       1.00
      C154          C  0.4710962  0.4902367  0.9226268    0.00000       Uiso       1.00
       H87          H  0.4763921  0.5363517  0.9398438    0.00000       Uiso       1.00
       H88          H  0.4925709  0.5113081  0.8822212    0.00000       Uiso       1.00
      C155          C  0.5180241  0.4679024  0.9426572    0.00000       Uiso       1.00
      C156          C  0.5043401  0.4528762  0.9266112    0.00000       Uiso       1.00
      C157          C  0.4996870  0.4634912  0.9162997    0.00000       Uiso       1.00
      C158          C  0.5269550  0.4934902  0.9482609    0.00000       Uiso       1.00
      C159          C  0.5218877  0.5039395  0.9380792    0.00000       Uiso       1.00
      C160          C  0.5083510  0.4892193  0.9216112    0.00000       Uiso       1.00
       H89          H  0.5319452  0.4719912  0.8754966    0.00000       Uiso       1.00
       H90          H  0.5483528  0.5296198  0.9005228    0.00000       Uiso       1.00
      C161          C  0.5308575  0.4820141  0.8308630    0.00000       Uiso       1.00
      C162          C  0.5364554  0.4730797  0.8419179    0.00000       Uiso       1.00
      C163          C  0.5262713  0.4781479  0.8676174    0.00000       Uiso       1.00
      C164          C  0.5148140  0.4957011  0.8455662    0.00000       Uiso       1.00
      C165          C  0.5044987  0.5003532  0.8711458    0.00000       Uiso       1.00
      C166          C  0.5098068  0.4916886  0.8829008    0.00000       Uiso       1.00
       H91          H  0.4887289  0.4516889  0.9043742    0.00000       Uiso       1.00
       H92          H  0.4636857  0.4681054  0.8881975    0.00000       Uiso       1.00
      C167          C  0.5405281  0.5082744  0.9643667    0.00000       Uiso       1.00
      C168          C  0.5451343  0.4978524  0.9747664    0.00000       Uiso       1.00
      C169          C  0.4951905  0.4274090  0.9214443    0.00000       Uiso       1.00
      C170          C  0.4994820  0.4170003  0.9321083    0.00000       Uiso       1.00
      C171          C  0.4917627  0.5848181  0.9523329    0.00000       Uiso       1.00
      C172          C  0.5021810  0.6102467  0.9569404    0.00000       Uiso       1.00
      C173          C  0.5726287  0.5774279  0.9069963    0.00000       Uiso       1.00
      C174          C  0.5830350  0.6027951  0.9112933    0.00000       Uiso       1.00
      C175          C  0.5096493  0.5048517  0.8344141    0.00000       Uiso       1.00
      C176          C  0.5203173  0.5005582  0.8090487    0.00000       Uiso       1.00
      C177          C  0.4226128  0.4903839  0.9844339    0.00000       Uiso       1.00
      C178          C  0.3972468  0.4797190  0.9948395    0.00000       Uiso       1.00
       H93          H  0.4335526  0.5025885  0.9963647    0.00000       Uiso       1.00
       H94          H  0.3892645  0.4839964  0.0145156    0.00000       Uiso       1.00
       H95          H  0.4920702  0.3973230  0.9278232    0.00000       Uiso       1.00
       H96          H  0.4845330  0.4154778  0.9092324    0.00000       Uiso       1.00
       H97          H  0.5476036  0.5279882  0.9689547    0.00000       Uiso       1.00
       H98          H  0.5556788  0.5097875  0.9870709    0.00000       Uiso       1.00
       H99          H  0.6027118  0.6107815  0.9038867    0.00000       Uiso       1.00
      H100          H  0.5845630  0.5664923  0.8963385    0.00000       Uiso       1.00
      H101          H  0.4720513  0.5767688  0.9594076    0.00000       Uiso       1.00
      H102          H  0.4902496  0.6211651  0.9674847    0.00000       Uiso       1.00
      H103          H  0.5160348  0.5079687  0.8010664    0.00000       Uiso       1.00
      H104          H  0.4974353  0.5155073  0.8453522    0.00000       Uiso       1.00
      C179          C  0.9550959  0.7374835  0.5971165    0.00000       Uiso       1.00
      C180          C  0.9532983  0.7247741  0.6096640    0.00000       Uiso       1.00
      C181          C  0.9493694  0.6992906  0.5988854    0.00000       Uiso       1.00
      C182          C  0.9532983  0.7247741  0.5736573    0.00000       Uiso       1.00
      C183          C  0.9495264  0.6993728  0.5627782    0.00000       Uiso       1.00
      C184          C  0.9473390  0.6859643  0.5751746    0.00000       Uiso       1.00
      H105          H  0.0208969  0.4556129  0.5368502    0.00000       Uiso       1.00
      H106          H  0.0211890  0.4551002  0.3100870    0.00000       Uiso       1.00
      H107          H  0.9547848  0.7348648  0.5631374    0.00000       Uiso       1.00
      C185          C  0.0089145  0.4029327  0.5433011    0.00000       Uiso       1.00
      C186          C  0.0214619  0.4263919  0.5415034    0.00000       Uiso       1.00
      C187          C  0.0107123  0.4372713  0.5377311    0.00000       Uiso       1.00
      C188          C  0.9854553  0.3903852  0.5415034    0.00000       Uiso       1.00
      C189          C  0.9746797  0.4011639  0.5375741    0.00000       Uiso       1.00
      C190          C  0.9870958  0.4248744  0.5355430    0.00000       Uiso       1.00
      H108          H  0.9474758  0.6899590  0.6093836    0.00000       Uiso       1.00
      H109          H  0.7215093  0.4631973  0.6090975    0.00000       Uiso       1.00
      H110          H  0.0405860  0.4369119  0.5429900    0.00000       Uiso       1.00
      C191          C  0.0089141  0.4029328  0.2625663    0.00000       Uiso       1.00
      C192          C  0.9854549  0.3903853  0.2752757    0.00000       Uiso       1.00
      C193          C  0.9745767  0.4011334  0.3006772    0.00000       Uiso       1.00
      C194          C  0.0214615  0.4263920  0.2752757    0.00000       Uiso       1.00
      C195          C  0.0106846  0.4371660  0.3007596    0.00000       Uiso       1.00
      C196          C  0.9869744  0.4247487  0.3140859    0.00000       Uiso       1.00
      H111          H  0.7218853  0.4643708  0.5449466    0.00000       Uiso       1.00
      H112          H  0.9486465  0.6903347  0.5444365    0.00000       Uiso       1.00
      H113          H  0.9749350  0.3712612  0.2651850    0.00000       Uiso       1.00
      C197          C  0.6743607  0.4567482  0.5971165    0.00000       Uiso       1.00
      C198          C  0.6870702  0.4585459  0.5736573    0.00000       Uiso       1.00
      C199          C  0.7125537  0.4624747  0.5628814    0.00000       Uiso       1.00
      C200          C  0.6870702  0.4585460  0.6096640    0.00000       Uiso       1.00
      C201          C  0.7124715  0.4623171  0.5989136    0.00000       Uiso       1.00
      C202          C  0.7258795  0.4645044  0.5752964    0.00000       Uiso       1.00
      H114          H  0.9562361  0.3909484  0.3097170    0.00000       Uiso       1.00
      H115          H  0.9567439  0.3906636  0.5356793    0.00000       Uiso       1.00
      C203          C  0.9118236  0.5000236  0.5000252    0.00000       Uiso       1.00
      H116          H  0.6769794  0.4570593  0.6287880    0.00000       Uiso       1.00
        N9          N  0.9552674  0.7381398  0.6349949    0.00000       Uiso       1.00
      H117          H  0.9535766  0.7262636  0.6412995    0.00000       Uiso       1.00
      H118          H  0.9717113  0.7515225  0.6343018    0.00000       Uiso       1.00
       N10          N  0.6737043  0.4565768  0.5597230    0.00000       Uiso       1.00
      H119          H  0.6855806  0.4582677  0.5432331    0.00000       Uiso       1.00
      H120          H  0.6603216  0.4401328  0.5573550    0.00000       Uiso       1.00
       N11          N  0.0467925  0.4403263  0.2619099    0.00000       Uiso       1.00
      H121          H  0.0530970  0.4568162  0.2737861    0.00000       Uiso       1.00
      H122          H  0.0581147  0.4307645  0.2544597    0.00000       Uiso       1.00
       N12          N  0.9715211  0.3650542  0.5434726    0.00000       Uiso       1.00
      H123          H  0.9550312  0.3587497  0.5417817    0.00000       Uiso       1.00
      H124          H  0.9810830  0.3537323  0.5300390    0.00000       Uiso       1.00
      C204          C  0.9428490  0.6584415  0.5635287    0.00000       Uiso       1.00
      C205          C  0.9521742  0.6470395  0.5684438    0.00000       Uiso       1.00
      C206          C  0.9478866  0.6214609  0.5577613    0.00000       Uiso       1.00
      C207          C  0.9291212  0.6432354  0.5473384    0.00000       Uiso       1.00
      C208          C  0.9249045  0.6176932  0.5363750    0.00000       Uiso       1.00
      C209          C  0.9342644  0.6067361  0.5416235    0.00000       Uiso       1.00
      H125          H  0.9212731  0.6511438  0.5435042    0.00000       Uiso       1.00
      H126          H  0.9630974  0.6580920  0.5803715    0.00000       Uiso       1.00
      C210          C  0.9757118  0.4365206  0.5310521    0.00000       Uiso       1.00
      C211          C  0.9904243  0.4527024  0.5173151    0.00000       Uiso       1.00
      C212          C  0.9800637  0.4636671  0.5130986    0.00000       Uiso       1.00
      C213          C  0.9500715  0.4316164  0.5403872    0.00000       Uiso       1.00
      C214          C  0.9394654  0.4423000  0.5360997    0.00000       Uiso       1.00
      C215          C  0.9544994  0.4584280  0.5224683    0.00000       Uiso       1.00
      H127          H  0.9382692  0.4196981  0.5513192    0.00000       Uiso       1.00
      H128          H  0.0100153  0.4565292  0.5094594    0.00000       Uiso       1.00
      C216          C  0.9753278  0.4361306  0.3416084    0.00000       Uiso       1.00
      C217          C  0.9591368  0.4214149  0.3568121    0.00000       Uiso       1.00
      C218          C  0.9481699  0.4317755  0.3823567    0.00000       Uiso       1.00
      C219          C  0.9802406  0.4617715  0.3530109    0.00000       Uiso       1.00
      C220          C  0.9695578  0.4723770  0.3785879    0.00000       Uiso       1.00
      C221          C  0.9534195  0.4573434  0.3933139    0.00000       Uiso       1.00
      H129          H  0.9921644  0.4735747  0.3419657    0.00000       Uiso       1.00
      H130          H  0.9553072  0.4018213  0.3488952    0.00000       Uiso       1.00
      C222          C  0.7534021  0.4689946  0.5639103    0.00000       Uiso       1.00
      C223          C  0.7648033  0.4596618  0.5382693    0.00000       Uiso       1.00
      C224          C  0.7903821  0.4639518  0.5276610    0.00000       Uiso       1.00
      C225          C  0.7686086  0.4827294  0.5786218    0.00000       Uiso       1.00
      C226          C  0.7941508  0.4869456  0.5682600    0.00000       Uiso       1.00
      C227          C  0.8051072  0.4775809  0.5426959    0.00000       Uiso       1.00
      H131          H  0.7606993  0.4905814  0.5982116    0.00000       Uiso       1.00
      H132          H  0.7537467  0.4487301  0.5264750    0.00000       Uiso       1.00
      C228          C  0.8015941  0.4548922  0.5021873    0.00000       Uiso       1.00
      C229          C  0.8270226  0.4595016  0.4917677    0.00000       Uiso       1.00
      C230          C  0.9139908  0.4371034  0.5451666    0.00000       Uiso       1.00
      C231          C  0.9035711  0.4475053  0.5405607    0.00000       Uiso       1.00
      H133          H  0.9020547  0.4248073  0.5557199    0.00000       Uiso       1.00
      H134          H  0.8838590  0.4429264  0.5476453    0.00000       Uiso       1.00
      H135          H  0.7906774  0.4443405  0.4902554    0.00000       Uiso       1.00
      H136          H  0.8350753  0.4524227  0.4720565    0.00000       Uiso       1.00
      C232          C  0.9298300  0.5809807  0.5308596    0.00000       Uiso       1.00
      C233          C  0.9387603  0.5699267  0.5364609    0.00000       Uiso       1.00
      C234          C  0.9336950  0.5442295  0.5262769    0.00000       Uiso       1.00
      C235          C  0.9161440  0.5662777  0.5148168    0.00000       Uiso       1.00
      C236          C  0.9114895  0.5406988  0.5045056    0.00000       Uiso       1.00
      C237          C  0.9201565  0.5289454  0.5098118    0.00000       Uiso       1.00
      H137          H  0.9601585  0.5074496  0.4887121    0.00000       Uiso       1.00
      H138          H  0.9437683  0.5236504  0.4636929    0.00000       Uiso       1.00
      C238          C  0.9439417  0.4691922  0.5180357    0.00000       Uiso       1.00
      C239          C  0.9589672  0.4852279  0.5043409    0.00000       Uiso       1.00
      C240          C  0.9483541  0.4955410  0.4996872    0.00000       Uiso       1.00
      C241          C  0.9183555  0.4636006  0.5269768    0.00000       Uiso       1.00
      C242          C  0.9079078  0.4737837  0.5219094    0.00000       Uiso       1.00
      C243          C  0.9226271  0.4902388  0.5083593    0.00000       Uiso       1.00
      H139          H  0.9398443  0.5363538  0.5319610    0.00000       Uiso       1.00
      H140          H  0.8822212  0.5113099  0.5483612    0.00000       Uiso       1.00
      C244          C  0.9426573  0.4679043  0.4190673    0.00000       Uiso       1.00
      C245          C  0.9266112  0.4528781  0.4337710    0.00000       Uiso       1.00
      C246          C  0.9162998  0.4634930  0.4593503    0.00000       Uiso       1.00
      C247          C  0.9482610  0.4934921  0.4301202    0.00000       Uiso       1.00
      C248          C  0.9380794  0.5039414  0.4558183    0.00000       Uiso       1.00
      C249          C  0.9216113  0.4892212  0.4711029    0.00000       Uiso       1.00
      H141          H  0.8754963  0.4719927  0.4763952    0.00000       Uiso       1.00
      H142          H  0.9005226  0.5296214  0.4925896    0.00000       Uiso       1.00
      C250          C  0.8308626  0.4820155  0.5321390    0.00000       Uiso       1.00
      C251          C  0.8419175  0.4730810  0.5065520    0.00000       Uiso       1.00
      C252          C  0.8676171  0.4781494  0.4961048    0.00000       Uiso       1.00
      C253          C  0.8455660  0.4957026  0.5471661    0.00000       Uiso       1.00
      C254          C  0.8711457  0.5003548  0.5365540    0.00000       Uiso       1.00
      C255          C  0.8829007  0.4916903  0.5108265    0.00000       Uiso       1.00
      H143          H  0.9043742  0.4516909  0.4704317    0.00000       Uiso       1.00
      H144          H  0.8881977  0.4681074  0.5280679    0.00000       Uiso       1.00
      C256          C  0.9643668  0.5082763  0.4152256    0.00000       Uiso       1.00
      C257          C  0.9747665  0.4978543  0.3897978    0.00000       Uiso       1.00
      C258          C  0.9214444  0.4274109  0.4226204    0.00000       Uiso       1.00
      C259          C  0.9321083  0.4170022  0.3972565    0.00000       Uiso       1.00
      C260          C  0.9523333  0.5848202  0.5525674    0.00000       Uiso       1.00
      C261          C  0.9569409  0.6102487  0.5629701    0.00000       Uiso       1.00
      C262          C  0.9069961  0.5774294  0.5096481    0.00000       Uiso       1.00
      C263          C  0.9112932  0.6027966  0.5203118    0.00000       Uiso       1.00
      C264          C  0.8344139  0.5048532  0.5726334    0.00000       Uiso       1.00
      C265          C  0.8090483  0.5005595  0.5830373    0.00000       Uiso       1.00
      C266          C  0.9844347  0.4903865  0.4951829    0.00000       Uiso       1.00
      C267          C  0.9948404  0.4797218  0.4994784    0.00000       Uiso       1.00
      H145          H  0.9963655  0.5025911  0.4845169    0.00000       Uiso       1.00
      H146          H  0.0145166  0.4839996  0.4920614    0.00000       Uiso       1.00
      H147          H  0.9278232  0.3973249  0.3892761    0.00000       Uiso       1.00
      H148          H  0.9092324  0.4154797  0.4335587    0.00000       Uiso       1.00
      H149          H  0.9689548  0.5279901  0.4232758    0.00000       Uiso       1.00
      H150          H  0.9870710  0.5097894  0.3788838    0.00000       Uiso       1.00
      H151          H  0.9038864  0.6107829  0.5160280    0.00000       Uiso       1.00
      H152          H  0.8963382  0.5664937  0.4974362    0.00000       Uiso       1.00
      H153          H  0.9594081  0.5767710  0.5571549    0.00000       Uiso       1.00
      H154          H  0.9674854  0.6211673  0.5752755    0.00000       Uiso       1.00
      H155          H  0.8010660  0.5079700  0.6027125    0.00000       Uiso       1.00
      H156          H  0.8453521  0.5155089  0.5845649    0.00000       Uiso       1.00
      C268          C  0.9550956  0.8147291  0.5971162    0.00000       Uiso       1.00
      C269          C  0.9532980  0.8021817  0.5736570    0.00000       Uiso       1.00
      C270          C  0.9493690  0.8129604  0.5628811    0.00000       Uiso       1.00
      C271          C  0.9532979  0.8381882  0.6096635    0.00000       Uiso       1.00
      C272          C  0.9495259  0.8490674  0.5989133    0.00000       Uiso       1.00
      C273          C  0.9473385  0.8366712  0.5752959    0.00000       Uiso       1.00
      H157          H  0.0208951  0.8749971  0.3097124    0.00000       Uiso       1.00
      H158          H  0.0211860  0.1017587  0.5356696    0.00000       Uiso       1.00
      H159          H  0.9547845  0.8487082  0.6287875    0.00000       Uiso       1.00
      C274          C  0.0089125  0.8685464  0.2625638    0.00000       Uiso       1.00
      C275          C  0.0214600  0.8703440  0.2752734    0.00000       Uiso       1.00
      C276          C  0.0107105  0.8741161  0.3006745    0.00000       Uiso       1.00
      C277          C  0.9854533  0.8703439  0.2752732    0.00000       Uiso       1.00
      C278          C  0.9746777  0.8742729  0.3007567    0.00000       Uiso       1.00
      C279          C  0.9870940  0.8763041  0.3140820    0.00000       Uiso       1.00
      H160          H  0.9474754  0.8024623  0.5449451    0.00000       Uiso       1.00
      H161          H  0.7215081  0.8027472  0.5444346    0.00000       Uiso       1.00
      H162          H  0.0405842  0.8688575  0.2651827    0.00000       Uiso       1.00
      C280          C  0.0089109  0.1492794  0.5432976    0.00000       Uiso       1.00
      C281          C  0.9854517  0.1365699  0.5415000    0.00000       Uiso       1.00
      C282          C  0.9745735  0.1111683  0.5377248    0.00000       Uiso       1.00
      C283          C  0.0214584  0.1365700  0.5415001    0.00000       Uiso       1.00
      C284          C  0.0106816  0.1110861  0.5375671    0.00000       Uiso       1.00
      C285          C  0.9869714  0.0977596  0.5355337    0.00000       Uiso       1.00
      H163          H  0.7218840  0.8668979  0.6093829    0.00000       Uiso       1.00
      H164          H  0.9486460  0.8674091  0.6090967    0.00000       Uiso       1.00
      H165          H  0.9749317  0.1466605  0.5429865    0.00000       Uiso       1.00
      C286          C  0.6743594  0.8147278  0.5971149    0.00000       Uiso       1.00
      C287          C  0.6870689  0.8381870  0.6096622    0.00000       Uiso       1.00
      C288          C  0.7125524  0.8489631  0.5988835    0.00000       Uiso       1.00
      C289          C  0.6870689  0.8021805  0.5736558    0.00000       Uiso       1.00
      C290          C  0.7124702  0.8129310  0.5627761    0.00000       Uiso       1.00
      C291          C  0.7258782  0.8365483  0.5751725    0.00000       Uiso       1.00
      H166          H  0.9562329  0.1021284  0.5368404    0.00000       Uiso       1.00
      H167          H  0.9567418  0.8761676  0.3100868    0.00000       Uiso       1.00
      C292          C  0.9118221  0.9118208  0.5000201    0.00000       Uiso       1.00
      H168          H  0.6769782  0.7830565  0.5631359    0.00000       Uiso       1.00
       N13          N  0.9552672  0.7768508  0.5597229    0.00000       Uiso       1.00
      H169          H  0.9535763  0.7705463  0.5432330    0.00000       Uiso       1.00
      H170          H  0.9717112  0.7775441  0.5573549    0.00000       Uiso       1.00
       N14          N  0.6737029  0.8521212  0.6349931    0.00000       Uiso       1.00
      H171          H  0.6855792  0.8686112  0.6412976    0.00000       Uiso       1.00
      H172          H  0.6603202  0.8544891  0.6342998    0.00000       Uiso       1.00
       N15          N  0.0467894  0.1499359  0.5434693    0.00000       Uiso       1.00
      H173          H  0.0530940  0.1380597  0.5417785    0.00000       Uiso       1.00
      H174          H  0.0581115  0.1573862  0.5300356    0.00000       Uiso       1.00
       N16          N  0.9715190  0.8683747  0.2619073    0.00000       Uiso       1.00
      H175          H  0.9550290  0.8700655  0.2737835    0.00000       Uiso       1.00
      H176          H  0.9810808  0.8818083  0.2544570    0.00000       Uiso       1.00
      C293          C  0.9428483  0.8483171  0.5639091    0.00000       Uiso       1.00
      C294          C  0.9521735  0.8434021  0.5382669    0.00000       Uiso       1.00
      C295          C  0.9478858  0.8540847  0.5276583    0.00000       Uiso       1.00
      C296          C  0.9291204  0.8645073  0.5786210    0.00000       Uiso       1.00
      C297          C  0.9249036  0.8754707  0.5682588    0.00000       Uiso       1.00
      C298          C  0.9342635  0.8702223  0.5426935    0.00000       Uiso       1.00
      H177          H  0.9212724  0.8683413  0.5982113    0.00000       Uiso       1.00
      H178          H  0.9630967  0.8314745  0.5264686    0.00000       Uiso       1.00
      C299          C  0.9757099  0.8807948  0.3416031    0.00000       Uiso       1.00
      C300          C  0.9904227  0.8945318  0.3568092    0.00000       Uiso       1.00
      C301          C  0.9800619  0.8987482  0.3823510    0.00000       Uiso       1.00
      C302          C  0.9500697  0.8714596  0.3530040    0.00000       Uiso       1.00
      C303          C  0.9394637  0.8757469  0.3785810    0.00000       Uiso       1.00
      C304          C  0.9544978  0.8893784  0.3933063    0.00000       Uiso       1.00
      H179          H  0.9382674  0.8605276  0.3419559    0.00000       Uiso       1.00
      H180          H  0.0100135  0.9023876  0.3489008    0.00000       Uiso       1.00
      C305          C  0.9753249  0.0702371  0.5310397    0.00000       Uiso       1.00
      C306          C  0.9591339  0.0550333  0.5173112    0.00000       Uiso       1.00
      C307          C  0.9481670  0.0294887  0.5130942    0.00000       Uiso       1.00
      C308          C  0.9802378  0.0588345  0.5403653    0.00000       Uiso       1.00
      C309          C  0.9695551  0.0332575  0.5360766    0.00000       Uiso       1.00
      C310          C  0.9534168  0.0185315  0.5224553    0.00000       Uiso       1.00
      H181          H  0.9921616  0.0698798  0.5512900    0.00000       Uiso       1.00
      H182          H  0.9553041  0.0629503  0.5094643    0.00000       Uiso       1.00
      C311          C  0.7534007  0.8479346  0.5635266    0.00000       Uiso       1.00
      C312          C  0.7648018  0.8735756  0.5684335    0.00000       Uiso       1.00
      C313          C  0.7903807  0.8841841  0.5577531    0.00000       Uiso       1.00
      C314          C  0.7686073  0.8332232  0.5473435    0.00000       Uiso       1.00
      C315          C  0.7941495  0.8435852  0.5363793    0.00000       Uiso       1.00
      C316          C  0.8051058  0.8691493  0.5416225    0.00000       Uiso       1.00
      H183          H  0.7606980  0.8136334  0.5435150    0.00000       Uiso       1.00
      H184          H  0.7537452  0.8853699  0.5803526    0.00000       Uiso       1.00
      C317          C  0.8015925  0.9096580  0.5629553    0.00000       Uiso       1.00
      C318          C  0.8270210  0.9200777  0.5525560    0.00000       Uiso       1.00
      C319          C  0.9139891  0.8666798  0.3897919    0.00000       Uiso       1.00
      C320          C  0.9035694  0.8712856  0.4152192    0.00000       Uiso       1.00
      H185          H  0.9020529  0.8561265  0.3788787    0.00000       Uiso       1.00
      H186          H  0.8838574  0.8642008  0.4232676    0.00000       Uiso       1.00
      H187          H  0.7906758  0.9215896  0.5752521    0.00000       Uiso       1.00
      H188          H  0.8350736  0.9397889  0.5571356    0.00000       Uiso       1.00
      C321          C  0.9298289  0.8809862  0.5321363    0.00000       Uiso       1.00
      C322          C  0.9387592  0.8753850  0.5065509    0.00000       Uiso       1.00
      C323          C  0.9336938  0.8855692  0.4961030    0.00000       Uiso       1.00
      C324          C  0.9161428  0.8970289  0.5471621    0.00000       Uiso       1.00
      C325          C  0.9114883  0.9073402  0.5365488    0.00000       Uiso       1.00
      C326          C  0.9201552  0.9020342  0.5108225    0.00000       Uiso       1.00
      H189          H  0.9601570  0.9231341  0.4704245    0.00000       Uiso       1.00
      H190          H  0.9437668  0.9481531  0.5280345    0.00000       Uiso       1.00
      C327          C  0.9439400  0.8938108  0.4190607    0.00000       Uiso       1.00
      C328          C  0.9589656  0.9075055  0.4337656    0.00000       Uiso       1.00
      C329          C  0.9483525  0.9121591  0.4593454    0.00000       Uiso       1.00
      C330          C  0.9183539  0.8848694  0.4301139    0.00000       Uiso       1.00
      C331          C  0.9079062  0.8899367  0.4558121    0.00000       Uiso       1.00
      C332          C  0.9226255  0.9034868  0.4710979    0.00000       Uiso       1.00
      H191          H  0.9398429  0.8798851  0.4763941    0.00000       Uiso       1.00
      H192          H  0.8822199  0.8634846  0.4925727    0.00000       Uiso       1.00
      C333          C  0.9426554  0.9927788  0.5180252    0.00000       Uiso       1.00
      C334          C  0.9266095  0.9780751  0.5043411    0.00000       Uiso       1.00
      C335          C  0.9162980  0.9524958  0.4996883    0.00000       Uiso       1.00
      C336          C  0.9482593  0.9817259  0.5269562    0.00000       Uiso       1.00
      C337          C  0.9380777  0.9560277  0.5218890    0.00000       Uiso       1.00
      C338          C  0.9216097  0.9407430  0.5083523    0.00000       Uiso       1.00
      H193          H  0.8754947  0.9354506  0.5319462    0.00000       Uiso       1.00
      H194          H  0.9005213  0.9192560  0.5483541    0.00000       Uiso       1.00
      C339          C  0.8308612  0.8797064  0.5308587    0.00000       Uiso       1.00
      C340          C  0.8419159  0.9052935  0.5364564    0.00000       Uiso       1.00
      C341          C  0.8676155  0.9157408  0.5262725    0.00000       Uiso       1.00
      C342          C  0.8455646  0.8646795  0.5148154    0.00000       Uiso       1.00
      C343          C  0.8711444  0.8752917  0.5045002    0.00000       Uiso       1.00
      C344          C  0.8828993  0.9010192  0.5098081    0.00000       Uiso       1.00
      H195          H  0.9043725  0.9414143  0.4887302    0.00000       Uiso       1.00
      H196          H  0.8881961  0.8837782  0.4636872    0.00000       Uiso       1.00
      C345          C  0.9643652  0.9966205  0.5405293    0.00000       Uiso       1.00
      C346          C  0.9747640  0.0220476  0.5451353    0.00000       Uiso       1.00
      C347          C  0.9214424  0.9892256  0.4951915    0.00000       Uiso       1.00
      C348          C  0.9321054  0.0145889  0.4994828    0.00000       Uiso       1.00
      C349          C  0.9523323  0.8592787  0.4917649    0.00000       Uiso       1.00
      C350          C  0.9569400  0.8488760  0.5021834    0.00000       Uiso       1.00
      C351          C  0.9069949  0.9021974  0.5726302    0.00000       Uiso       1.00
      C352          C  0.9112922  0.8915337  0.5830365    0.00000       Uiso       1.00
      C353          C  0.8344126  0.8392120  0.5096508    0.00000       Uiso       1.00
      C354          C  0.8090471  0.8288081  0.5203187    0.00000       Uiso       1.00
      C355          C  0.9844331  0.9166638  0.4226149    0.00000       Uiso       1.00
      C356          C  0.9948388  0.9123684  0.3972490    0.00000       Uiso       1.00
      H197          H  0.9963639  0.9273298  0.4335546    0.00000       Uiso       1.00
      H198          H  0.0145149  0.9197856  0.3892678    0.00000       Uiso       1.00
      H199          H  0.9278203  0.0225693  0.4920709    0.00000       Uiso       1.00
      H200          H  0.9092305  0.9782874  0.4845339    0.00000       Uiso       1.00
      H201          H  0.9689533  0.9885703  0.5476048    0.00000       Uiso       1.00
      H202          H  0.9870685  0.0329616  0.5556798    0.00000       Uiso       1.00
      H203          H  0.9038855  0.8958174  0.6027132    0.00000       Uiso       1.00
      H204          H  0.8963370  0.9144093  0.5845642    0.00000       Uiso       1.00
      H205          H  0.9594070  0.8546913  0.4720537    0.00000       Uiso       1.00
      H206          H  0.9674845  0.8365707  0.4902521    0.00000       Uiso       1.00
      H207          H  0.8010648  0.8091328  0.5160364    0.00000       Uiso       1.00
      H208          H  0.8453509  0.8272808  0.4974370    0.00000       Uiso       1.00
      C357          C  0.5971135  0.8147275  0.9550953    0.00000       Uiso       1.00
      C358          C  0.6096608  0.8381867  0.9532977    0.00000       Uiso       1.00
      C359          C  0.5988820  0.8489625  0.9493686    0.00000       Uiso       1.00
      C360          C  0.5736542  0.8021800  0.9532977    0.00000       Uiso       1.00
      C361          C  0.5627748  0.8129300  0.9495256    0.00000       Uiso       1.00
      C362          C  0.5751712  0.8365474  0.9473381    0.00000       Uiso       1.00
      H209          H  0.5368423  0.1021288  0.0208936    0.00000       Uiso       1.00
      H210          H  0.3100798  0.8761712  0.0211859    0.00000       Uiso       1.00
      H211          H  0.5631343  0.7830560  0.9547843    0.00000       Uiso       1.00
      C363          C  0.5432929  0.1492773  0.0089109    0.00000       Uiso       1.00
      C364          C  0.5414954  0.1365678  0.0214584    0.00000       Uiso       1.00
      C365          C  0.5377232  0.1111667  0.0107090    0.00000       Uiso       1.00
      C366          C  0.5414963  0.1365682  0.9854518    0.00000       Uiso       1.00
      C367          C  0.5375671  0.1110846  0.9746762    0.00000       Uiso       1.00
      C368          C  0.5355362  0.0977594  0.9870925    0.00000       Uiso       1.00
      H212          H  0.6093802  0.8668985  0.9474749    0.00000       Uiso       1.00
      H213          H  0.6090939  0.8674079  0.7215087    0.00000       Uiso       1.00
      H214          H  0.5429820  0.1466586  0.0405824    0.00000       Uiso       1.00
      C369          C  0.2625585  0.8685426  0.0089108    0.00000       Uiso       1.00
      C370          C  0.2752691  0.8703407  0.9854516    0.00000       Uiso       1.00
      C371          C  0.3006708  0.8741159  0.9745734    0.00000       Uiso       1.00
      C372          C  0.2752681  0.8703403  0.0214583    0.00000       Uiso       1.00
      C373          C  0.3007522  0.8742735  0.0106816    0.00000       Uiso       1.00
      C374          C  0.3140796  0.8763072  0.9869713    0.00000       Uiso       1.00
      H215          H  0.5449429  0.8024592  0.7218848    0.00000       Uiso       1.00
      H216          H  0.5444329  0.8027465  0.9486458    0.00000       Uiso       1.00
      H217          H  0.2651783  0.8688540  0.9749317    0.00000       Uiso       1.00
      C375          C  0.5971131  0.8147274  0.6743605    0.00000       Uiso       1.00
      C376          C  0.5736538  0.8021800  0.6870700    0.00000       Uiso       1.00
      C377          C  0.5628777  0.8129587  0.7125533    0.00000       Uiso       1.00
      C378          C  0.6096605  0.8381867  0.6870700    0.00000       Uiso       1.00
      C379          C  0.5989100  0.8490663  0.7124709    0.00000       Uiso       1.00
      C380          C  0.5752926  0.8366698  0.7258790    0.00000       Uiso       1.00
      H218          H  0.3097107  0.8750004  0.9562331    0.00000       Uiso       1.00
      H219          H  0.5356725  0.1017545  0.9567405    0.00000       Uiso       1.00
      C381          C  0.5000203  0.9118221  0.9118217    0.00000       Uiso       1.00
      H220          H  0.6287847  0.8487066  0.6769792    0.00000       Uiso       1.00
       N17          N  0.6349919  0.8521210  0.9552668    0.00000       Uiso       1.00
      H221          H  0.6412964  0.8686109  0.9535759    0.00000       Uiso       1.00
      H222          H  0.6342987  0.8544891  0.9717107    0.00000       Uiso       1.00
       N18          N  0.5597196  0.7768490  0.6737041    0.00000       Uiso       1.00
      H223          H  0.5432296  0.7705445  0.6855803    0.00000       Uiso       1.00
      H224          H  0.5573515  0.7775422  0.6603215    0.00000       Uiso       1.00
       N19          N  0.2619022  0.8683712  0.0467892    0.00000       Uiso       1.00
      H225          H  0.2737786  0.8700621  0.0530938    0.00000       Uiso       1.00
      H226          H  0.2544519  0.8818047  0.0581112    0.00000       Uiso       1.00
       N20          N  0.5434654  0.1499340  0.9715174    0.00000       Uiso       1.00
      H227          H  0.5417745  0.1380577  0.9550275    0.00000       Uiso       1.00
      H228          H  0.5300317  0.1573841  0.9810792    0.00000       Uiso       1.00
      C382          C  0.5635250  0.8479341  0.9428480    0.00000       Uiso       1.00
      C383          C  0.5684400  0.8735763  0.9521730    0.00000       Uiso       1.00
      C384          C  0.5577573  0.8841848  0.9478853    0.00000       Uiso       1.00
      C385          C  0.5473347  0.8332221  0.9291202    0.00000       Uiso       1.00
      C386          C  0.5363711  0.8435840  0.9249033    0.00000       Uiso       1.00
      C387          C  0.5416195  0.8691494  0.9342631    0.00000       Uiso       1.00
      H229          H  0.5435006  0.8136317  0.9212723    0.00000       Uiso       1.00
      H230          H  0.5803677  0.8853747  0.9630961    0.00000       Uiso       1.00
      C388          C  0.5310454  0.0702383  0.9757086    0.00000       Uiso       1.00
      C389          C  0.5173085  0.0550322  0.9904213    0.00000       Uiso       1.00
      C390          C  0.5130921  0.0294904  0.9800607    0.00000       Uiso       1.00
      C391          C  0.5403807  0.0588375  0.9500685    0.00000       Uiso       1.00
      C392          C  0.5360934  0.0332605  0.9394627    0.00000       Uiso       1.00
      C393          C  0.5224620  0.0185352  0.9544967    0.00000       Uiso       1.00
      H231          H  0.5513127  0.0698856  0.9382663    0.00000       Uiso       1.00
      H232          H  0.5094517  0.0629403  0.0100122    0.00000       Uiso       1.00
      C394          C  0.3416024  0.8808015  0.9753249    0.00000       Uiso       1.00
      C395          C  0.3568061  0.8945299  0.9591339    0.00000       Uiso       1.00
      C396          C  0.3823509  0.8987471  0.9481671    0.00000       Uiso       1.00
      C397          C  0.3530051  0.8714761  0.9802378    0.00000       Uiso       1.00
      C398          C  0.3785822  0.8757649  0.9695552    0.00000       Uiso       1.00
      C399          C  0.3933082  0.8893862  0.9534169    0.00000       Uiso       1.00
      H233          H  0.3419598  0.8605514  0.9921616    0.00000       Uiso       1.00
      H234          H  0.3488890  0.9023768  0.9553041    0.00000       Uiso       1.00
      C400          C  0.5639064  0.8483157  0.7534013    0.00000       Uiso       1.00
      C401          C  0.5382653  0.8434086  0.7648023    0.00000       Uiso       1.00
      C402          C  0.5276568  0.8540890  0.7903810    0.00000       Uiso       1.00
      C403          C  0.5786179  0.8644990  0.7686077    0.00000       Uiso       1.00
      C404          C  0.5682560  0.8754631  0.7941498    0.00000       Uiso       1.00
      C405          C  0.5426917  0.8702198  0.8051060    0.00000       Uiso       1.00
      H235          H  0.5982078  0.8683276  0.7606986    0.00000       Uiso       1.00
      H236          H  0.5264708  0.8314894  0.7537459    0.00000       Uiso       1.00
      C406          C  0.5021828  0.8488867  0.8015928    0.00000       Uiso       1.00
      C407          C  0.4917631  0.8592860  0.8270211    0.00000       Uiso       1.00
      C408          C  0.5451604  0.0220496  0.9139882    0.00000       Uiso       1.00
      C409          C  0.5405555  0.9966231  0.9035687    0.00000       Uiso       1.00
      H237          H  0.5557137  0.0329628  0.9020521    0.00000       Uiso       1.00
      H238          H  0.5476403  0.9885747  0.8838568    0.00000       Uiso       1.00
      H239          H  0.4902509  0.8365898  0.7906762    0.00000       Uiso       1.00
      H240          H  0.4720517  0.8547062  0.8350738    0.00000       Uiso       1.00
      C410          C  0.5308554  0.8797064  0.9298285    0.00000       Uiso       1.00
      C411          C  0.5364566  0.9052919  0.9387587    0.00000       Uiso       1.00
      C412          C  0.5262723  0.9157396  0.9336932    0.00000       Uiso       1.00
      C413          C  0.5148125  0.8646805  0.9161424    0.00000       Uiso       1.00
      C414          C  0.5045011  0.8752936  0.9114879    0.00000       Uiso       1.00
      C415          C  0.5098071  0.9010200  0.9201548    0.00000       Uiso       1.00
      H241          H  0.4887070  0.9414177  0.9601562    0.00000       Uiso       1.00
      H242          H  0.4636879  0.8838077  0.9437663    0.00000       Uiso       1.00
      C416          C  0.5180303  0.9927815  0.9439391    0.00000       Uiso       1.00
      C417          C  0.5043357  0.9780766  0.9589646    0.00000       Uiso       1.00
      C418          C  0.4996820  0.9524969  0.9483517    0.00000       Uiso       1.00
      C419          C  0.5269716  0.9817283  0.9183531    0.00000       Uiso       1.00
      C420          C  0.5219043  0.9560301  0.9079056    0.00000       Uiso       1.00
      C421          C  0.5083542  0.9407443  0.9226249    0.00000       Uiso       1.00
      H243          H  0.5319563  0.9354485  0.9398423    0.00000       Uiso       1.00
      H244          H  0.5483568  0.9192699  0.8822196    0.00000       Uiso       1.00
      C422          C  0.4190618  0.8938165  0.9426548    0.00000       Uiso       1.00
      C423          C  0.4337655  0.9075005  0.9266088    0.00000       Uiso       1.00
      C424          C  0.4593451  0.9121536  0.9162975    0.00000       Uiso       1.00
      C425          C  0.4301149  0.8848856  0.9482586    0.00000       Uiso       1.00
      C426          C  0.4558133  0.8899530  0.9380772    0.00000       Uiso       1.00
      C427          C  0.4710979  0.9034897  0.9216092    0.00000       Uiso       1.00
      H245          H  0.4763903  0.8798957  0.8754945    0.00000       Uiso       1.00
      H246          H  0.4925851  0.8634881  0.9005210    0.00000       Uiso       1.00
      C428          C  0.5321347  0.8809835  0.8308612    0.00000       Uiso       1.00
      C429          C  0.5065474  0.8753856  0.8419159    0.00000       Uiso       1.00
      C430          C  0.4961001  0.8855696  0.8676153    0.00000       Uiso       1.00
      C431          C  0.5471618  0.8970270  0.8455645    0.00000       Uiso       1.00
      C432          C  0.5365494  0.9073422  0.8711442    0.00000       Uiso       1.00
      C433          C  0.5108219  0.9020340  0.8828989    0.00000       Uiso       1.00
      H247          H  0.4704265  0.9231117  0.9043720    0.00000       Uiso       1.00
      H248          H  0.5280629  0.9481550  0.8881956    0.00000       Uiso       1.00
      C434          C  0.4152203  0.8713126  0.9643645    0.00000       Uiso       1.00
      C435          C  0.3897923  0.8667064  0.9747640    0.00000       Uiso       1.00
      C436          C  0.4226148  0.9166501  0.9214417    0.00000       Uiso       1.00
      C437          C  0.3972506  0.9123585  0.9321055    0.00000       Uiso       1.00
      C438          C  0.5525630  0.9200779  0.9523316    0.00000       Uiso       1.00
      C439          C  0.5629659  0.9096597  0.9569393    0.00000       Uiso       1.00
      C440          C  0.5096440  0.8392124  0.9069948    0.00000       Uiso       1.00
      C441          C  0.5203079  0.8288062  0.9112921    0.00000       Uiso       1.00
      C442          C  0.5726293  0.9021918  0.8344126    0.00000       Uiso       1.00
      C443          C  0.5830333  0.8915239  0.8090472    0.00000       Uiso       1.00
      C444          C  0.4951774  0.9892274  0.9844320    0.00000       Uiso       1.00
      C445          C  0.4994719  0.0145924  0.9948376    0.00000       Uiso       1.00
      H249          H  0.4845114  0.9782876  0.9963628    0.00000       Uiso       1.00
      H250          H  0.4920538  0.0225733  0.0145137    0.00000       Uiso       1.00
      H251          H  0.3892701  0.9197704  0.9278204    0.00000       Uiso       1.00
      H252          H  0.4335530  0.9273076  0.9092299    0.00000       Uiso       1.00
      H253          H  0.4232707  0.8642371  0.9689525    0.00000       Uiso       1.00
      H254          H  0.3788784  0.8561618  0.9870685    0.00000       Uiso       1.00
      H255          H  0.5160242  0.8091295  0.9038854    0.00000       Uiso       1.00
      H256          H  0.4974320  0.8272783  0.8963369    0.00000       Uiso       1.00
      H257          H  0.5571504  0.9397892  0.9594063    0.00000       Uiso       1.00
      H258          H  0.5752713  0.9215910  0.9674838    0.00000       Uiso       1.00
      H259          H  0.6027086  0.8958064  0.8010650    0.00000       Uiso       1.00
      H260          H  0.5845607  0.9144056  0.8453509    0.00000       Uiso       1.00
      C446          C  0.9550957  0.8147292  0.6743620    0.00000       Uiso       1.00
      C447          C  0.9532980  0.8381883  0.6870713    0.00000       Uiso       1.00
      C448          C  0.9493690  0.8489641  0.7125549    0.00000       Uiso       1.00
      C449          C  0.9532981  0.8021818  0.6870716    0.00000       Uiso       1.00
      C450          C  0.9495261  0.8129318  0.7124728    0.00000       Uiso       1.00
      C451          C  0.9473386  0.8365492  0.7258812    0.00000       Uiso       1.00
      H261          H  0.0208941  0.1021315  0.9562330    0.00000       Uiso       1.00
      H262          H  0.0211881  0.8761749  0.9567466    0.00000       Uiso       1.00
      H263          H  0.9547848  0.7830578  0.6769809    0.00000       Uiso       1.00
      C452          C  0.0089105  0.1492795  0.0089130    0.00000       Uiso       1.00
      C453          C  0.0214590  0.1365705  0.9854539    0.00000       Uiso       1.00
      C454          C  0.0107095  0.1111693  0.9745745    0.00000       Uiso       1.00
      C455          C  0.9854513  0.1365699  0.0214604    0.00000       Uiso       1.00
      C456          C  0.9746757  0.1110864  0.0106817    0.00000       Uiso       1.00
      C457          C  0.9870930  0.0977616  0.9869713    0.00000       Uiso       1.00
      H264          H  0.9474753  0.8669001  0.7218863    0.00000       Uiso       1.00
      H265          H  0.7215083  0.8674085  0.9486468    0.00000       Uiso       1.00
      H266          H  0.0405831  0.1466613  0.9749340    0.00000       Uiso       1.00
      C458          C  0.0089122  0.8685462  0.0089142    0.00000       Uiso       1.00
      C459          C  0.9854530  0.8703437  0.0214615    0.00000       Uiso       1.00
      C460          C  0.9745746  0.8741188  0.0107132    0.00000       Uiso       1.00
      C461          C  0.0214607  0.8703442  0.9854550    0.00000       Uiso       1.00
      C462          C  0.0106838  0.8742773  0.9746808    0.00000       Uiso       1.00
      C463          C  0.9869735  0.8763105  0.9870979    0.00000       Uiso       1.00
      H267          H  0.7218845  0.8024601  0.9474736    0.00000       Uiso       1.00
      H268          H  0.9486464  0.8027483  0.7215109    0.00000       Uiso       1.00
      H269          H  0.9749330  0.8688571  0.0405855    0.00000       Uiso       1.00
      C464          C  0.6743597  0.8147279  0.9550956    0.00000       Uiso       1.00
      C465          C  0.6870694  0.8021806  0.9532982    0.00000       Uiso       1.00
      C466          C  0.7125529  0.8129595  0.9493695    0.00000       Uiso       1.00
      C467          C  0.6870692  0.8381871  0.9532980    0.00000       Uiso       1.00
      C468          C  0.7124705  0.8490669  0.9495270    0.00000       Uiso       1.00
      C469          C  0.7258787  0.8366706  0.9473400    0.00000       Uiso       1.00
      H270          H  0.9562341  0.8750032  0.0208981    0.00000       Uiso       1.00
      H271          H  0.9567400  0.1017562  0.0211819    0.00000       Uiso       1.00
      C470          C  0.9118226  0.9118241  0.9118219    0.00000       Uiso       1.00
      H272          H  0.6769783  0.8487069  0.9547845    0.00000       Uiso       1.00
       N21          N  0.9552671  0.8521225  0.6737055    0.00000       Uiso       1.00
      H273          H  0.9535761  0.8686124  0.6855817    0.00000       Uiso       1.00
      H274          H  0.9717110  0.8544906  0.6603228    0.00000       Uiso       1.00
       N22          N  0.6737036  0.7768496  0.9552673    0.00000       Uiso       1.00
      H275          H  0.6855800  0.7705452  0.9535765    0.00000       Uiso       1.00
      H276          H  0.6603208  0.7775428  0.9717112    0.00000       Uiso       1.00
       N23          N  0.0467918  0.8683752  0.9715208    0.00000       Uiso       1.00
      H277          H  0.0530963  0.8700662  0.9550310    0.00000       Uiso       1.00
      H278          H  0.0581138  0.8818089  0.9810827    0.00000       Uiso       1.00
       N24          N  0.9715170  0.1499357  0.0467913    0.00000       Uiso       1.00
      H279          H  0.9550270  0.1380594  0.0530958    0.00000       Uiso       1.00
      H280          H  0.9810788  0.1573860  0.0581133    0.00000       Uiso       1.00
      C471          C  0.9428486  0.8479359  0.7534040    0.00000       Uiso       1.00
      C472          C  0.9521737  0.8735781  0.7648060    0.00000       Uiso       1.00
      C473          C  0.9478860  0.8841866  0.7903847    0.00000       Uiso       1.00
      C474          C  0.9291207  0.8332239  0.7686101    0.00000       Uiso       1.00
      C475          C  0.9249040  0.8435858  0.7941523    0.00000       Uiso       1.00
      C476          C  0.9342638  0.8691512  0.8051093    0.00000       Uiso       1.00
      H281          H  0.9212728  0.8136334  0.7607017    0.00000       Uiso       1.00
      H282          H  0.9630968  0.8853765  0.7537536    0.00000       Uiso       1.00
      C477          C  0.9757091  0.0702404  0.9753250    0.00000       Uiso       1.00
      C478          C  0.9904219  0.0550345  0.9591433    0.00000       Uiso       1.00
      C479          C  0.9800613  0.0294926  0.9481786    0.00000       Uiso       1.00
      C480          C  0.9500688  0.0588394  0.9802291    0.00000       Uiso       1.00
      C481          C  0.9394629  0.0332624  0.9695454    0.00000       Uiso       1.00
      C482          C  0.9544971  0.0185373  0.9534176    0.00000       Uiso       1.00
      H283          H  0.9382665  0.0698874  0.9921473    0.00000       Uiso       1.00
      H284          H  0.0100128  0.0629430  0.9553167    0.00000       Uiso       1.00
      C483          C  0.9753269  0.8808045  0.9757159    0.00000       Uiso       1.00
      C484          C  0.9591358  0.8945328  0.9904314    0.00000       Uiso       1.00
      C485          C  0.9481688  0.8987499  0.9800707    0.00000       Uiso       1.00
      C486          C  0.9802398  0.8714790  0.9500749    0.00000       Uiso       1.00
      C487          C  0.9695570  0.8757677  0.9394693    0.00000       Uiso       1.00
      C488          C  0.9534186  0.8893889  0.9545028    0.00000       Uiso       1.00
      H285          H  0.9921637  0.8605545  0.9382718    0.00000       Uiso       1.00
      H286          H  0.9553050  0.9023793  0.0100250    0.00000       Uiso       1.00
      C489          C  0.7534012  0.8483167  0.9428499    0.00000       Uiso       1.00
      C490          C  0.7648023  0.8434098  0.9521828    0.00000       Uiso       1.00
      C491          C  0.7903812  0.8540903  0.9478930    0.00000       Uiso       1.00
      C492          C  0.7686076  0.8644999  0.9291151    0.00000       Uiso       1.00
      C493          C  0.7941498  0.8754642  0.9248990    0.00000       Uiso       1.00
      C494          C  0.8051062  0.8702211  0.9342639    0.00000       Uiso       1.00
      H287          H  0.7606983  0.8683283  0.9212629    0.00000       Uiso       1.00
      H288          H  0.7537458  0.8314905  0.9631146    0.00000       Uiso       1.00
      C495          C  0.8015932  0.8488881  0.9569528    0.00000       Uiso       1.00
      C496          C  0.8270217  0.8592876  0.9523435    0.00000       Uiso       1.00
      C497          C  0.9139882  0.0220513  0.9747418    0.00000       Uiso       1.00
      C498          C  0.9035696  0.9966248  0.9643400    0.00000       Uiso       1.00
      H289          H  0.9020522  0.0329645  0.9870378    0.00000       Uiso       1.00
      H290          H  0.8838575  0.9885763  0.9689187    0.00000       Uiso       1.00
      H291          H  0.7906765  0.8365913  0.9675044    0.00000       Uiso       1.00
      H292          H  0.8350744  0.8547080  0.9594225    0.00000       Uiso       1.00
      C499          C  0.9298293  0.8797083  0.8308648    0.00000       Uiso       1.00
      C500          C  0.9387594  0.9052938  0.8419188    0.00000       Uiso       1.00
      C501          C  0.9336941  0.9157414  0.8676161    0.00000       Uiso       1.00
      C502          C  0.9161432  0.8646824  0.8455678    0.00000       Uiso       1.00
      C503          C  0.9114888  0.8752955  0.8711467    0.00000       Uiso       1.00
      C504          C  0.9201556  0.9010220  0.8829001    0.00000       Uiso       1.00
      H293          H  0.9601575  0.9414200  0.9043962    0.00000       Uiso       1.00
      H294          H  0.9437675  0.8838099  0.8881954    0.00000       Uiso       1.00
      C505          C  0.9439402  0.9927835  0.9426534    0.00000       Uiso       1.00
      C506          C  0.9589658  0.9780787  0.9266177    0.00000       Uiso       1.00
      C507          C  0.9483529  0.9524990  0.9163047    0.00000       Uiso       1.00
      C508          C  0.9183541  0.9817302  0.9482448    0.00000       Uiso       1.00
      C509          C  0.9079065  0.9560320  0.9380617    0.00000       Uiso       1.00
      C510          C  0.9226259  0.9407463  0.9216067    0.00000       Uiso       1.00
      H295          H  0.9398432  0.9354504  0.8754917    0.00000       Uiso       1.00
      H296          H  0.8822201  0.9192715  0.9005353    0.00000       Uiso       1.00
      C511          C  0.9426563  0.8938190  0.9439416    0.00000       Uiso       1.00
      C512          C  0.9266102  0.9075029  0.9589677    0.00000       Uiso       1.00
      C513          C  0.9162986  0.9121557  0.9483526    0.00000       Uiso       1.00
      C514          C  0.9482601  0.8848882  0.9183540    0.00000       Uiso       1.00
      C515          C  0.9380784  0.8899553  0.9079044    0.00000       Uiso       1.00
      C516          C  0.9216103  0.9034919  0.9226244    0.00000       Uiso       1.00
      H297          H  0.8754953  0.8798977  0.9398527    0.00000       Uiso       1.00
      H298          H  0.9005219  0.8634901  0.8822241    0.00000       Uiso       1.00
      C517          C  0.8308616  0.8809850  0.9298295    0.00000       Uiso       1.00
      C518          C  0.8419165  0.8753873  0.9387640    0.00000       Uiso       1.00
      C519          C  0.8676161  0.8855714  0.9336959    0.00000       Uiso       1.00
      C520          C  0.8455650  0.8970284  0.9161424    0.00000       Uiso       1.00
      C521          C  0.8711447  0.9073439  0.9114903    0.00000       Uiso       1.00
      C522          C  0.8828997  0.9020359  0.9201550    0.00000       Uiso       1.00
      H299          H  0.9043730  0.9231138  0.9601547    0.00000       Uiso       1.00
      H300          H  0.8881964  0.9481567  0.9437379    0.00000       Uiso       1.00
      C523          C  0.9643660  0.8713152  0.9035698    0.00000       Uiso       1.00
      C524          C  0.9747658  0.8667091  0.9139920    0.00000       Uiso       1.00
      C525          C  0.9214432  0.9166524  0.9844349    0.00000       Uiso       1.00
      C526          C  0.9321071  0.9123611  0.9948438    0.00000       Uiso       1.00
      C527          C  0.9523324  0.9200798  0.8270254    0.00000       Uiso       1.00
      C528          C  0.9569401  0.9096615  0.8015968    0.00000       Uiso       1.00
      C529          C  0.9069955  0.8392143  0.8344161    0.00000       Uiso       1.00
      C530          C  0.9112927  0.8288080  0.8090489    0.00000       Uiso       1.00
      C531          C  0.8344127  0.9021930  0.9069917    0.00000       Uiso       1.00
      C532          C  0.8090473  0.8915250  0.9112852    0.00000       Uiso       1.00
      C533          C  0.9844334  0.9892297  0.9214594    0.00000       Uiso       1.00
      C534          C  0.9948382  0.0145948  0.9321241    0.00000       Uiso       1.00
      H301          H  0.9963643  0.9782900  0.9092549    0.00000       Uiso       1.00
      H302          H  0.0145143  0.0225761  0.9278464    0.00000       Uiso       1.00
      H303          H  0.9278210  0.9197726  0.0145211    0.00000       Uiso       1.00
      H304          H  0.9092312  0.9273099  0.9963660    0.00000       Uiso       1.00
      H305          H  0.9689541  0.8642398  0.8838561    0.00000       Uiso       1.00
      H306          H  0.9870704  0.8561647  0.9020571    0.00000       Uiso       1.00
      H307          H  0.9038860  0.8091313  0.8010626    0.00000       Uiso       1.00
      H308          H  0.8963376  0.8272802  0.8453518    0.00000       Uiso       1.00
      H309          H  0.9594071  0.9397910  0.8350745    0.00000       Uiso       1.00
      H310          H  0.9674845  0.9215928  0.7906783    0.00000       Uiso       1.00
      H311          H  0.8010649  0.8958073  0.9038745    0.00000       Uiso       1.00
      H312          H  0.8453510  0.9144070  0.8963360    0.00000       Uiso       1.00
       N25          N  0.6344592  0.4564643  0.5993892    0.00000       Uiso       1.00
      C535          C  0.6467946  0.4564733  0.6107618    0.00000       Uiso       1.00
      C536          C  0.6107603  0.4564732  0.6467960    0.00000       Uiso       1.00
       N26          N  0.6344593  0.4564643  0.6344606    0.00000       Uiso       1.00
       N27          N  0.5993879  0.4564641  0.6344604    0.00000       Uiso       1.00
      C537          C  0.6107603  0.4564732  0.6107616    0.00000       Uiso       1.00
       N28          N  0.5993862  0.7773830  0.6344594    0.00000       Uiso       1.00
      C538          C  0.6107586  0.8010818  0.6467947    0.00000       Uiso       1.00
      C539          C  0.6467931  0.8010822  0.6107607    0.00000       Uiso       1.00
       N29          N  0.6344575  0.8124544  0.6344594    0.00000       Uiso       1.00
       N30          N  0.6344576  0.7773833  0.5993884    0.00000       Uiso       1.00
      C540          C  0.6107587  0.7650478  0.6107607    0.00000       Uiso       1.00
      C541          C  0.5477740  0.3629576  0.1983304    0.00000       Uiso       1.00
      C542          C  0.5490295  0.3421250  0.1773448    0.00000       Uiso       1.00
      C543          C  0.5514696  0.3221302  0.1766778    0.00000       Uiso       1.00
      C544          C  0.5514587  0.3009430  0.1559370    0.00000       Uiso       1.00
      C545          C  0.5476168  0.2987206  0.1358756    0.00000       Uiso       1.00
      C546          C  0.5448241  0.3189640  0.1370959    0.00000       Uiso       1.00
      C547          C  0.5472258  0.3413083  0.1567044    0.00000       Uiso       1.00
        O1          O  0.5483003  0.3663005  0.2203358    0.00000       Uiso       1.00
      H313          H  0.5534090  0.3230211  0.1923419    0.00000       Uiso       1.00
      H314          H  0.5542179  0.2863610  0.1560266    0.00000       Uiso       1.00
      H315          H  0.5391968  0.3168632  0.1234613    0.00000       Uiso       1.00
      C548          C  0.5478383  0.3831506  0.0488591    0.00000       Uiso       1.00
      C549          C  0.5491083  0.3842557  0.0696863    0.00000       Uiso       1.00
      C550          C  0.5515361  0.4060185  0.0896890    0.00000       Uiso       1.00
      C551          C  0.5515180  0.4064476  0.1108770    0.00000       Uiso       1.00
      C552          C  0.5476748  0.3847647  0.1130961    0.00000       Uiso       1.00
      C553          C  0.5449063  0.3629570  0.0928382    0.00000       Uiso       1.00
      C554          C  0.5473183  0.3626312  0.0704935    0.00000       Uiso       1.00
        O2          O  0.5483313  0.4023331  0.0455337    0.00000       Uiso       1.00
      H316          H  0.5534593  0.4227299  0.0888112    0.00000       Uiso       1.00
      H317          H  0.5542650  0.4238755  0.1254642    0.00000       Uiso       1.00
      H318          H  0.5392811  0.3457916  0.0949249    0.00000       Uiso       1.00
      C555          C  0.5478167  0.2135349  0.0287059    0.00000       Uiso       1.00
      C556          C  0.5491055  0.2345305  0.0275956    0.00000       Uiso       1.00
      C557          C  0.5515674  0.2352018  0.0058213    0.00000       Uiso       1.00
      C558          C  0.5515798  0.2559507  0.0053764    0.00000       Uiso       1.00
      C559          C  0.5477399  0.2760151  0.0270554    0.00000       Uiso       1.00
      C560          C  0.5449384  0.2747943  0.0488768    0.00000       Uiso       1.00
      C561          C  0.5473090  0.2551720  0.0492202    0.00000       Uiso       1.00
        O3          O  0.5483387  0.1915311  0.0095160    0.00000       Uiso       1.00
      H319          H  0.5534946  0.2195273  0.9891156    0.00000       Uiso       1.00
      H320          H  0.5543457  0.2558610  0.9879426    0.00000       Uiso       1.00
      H321          H  0.5393199  0.2884341  0.0660362    0.00000       Uiso       1.00
      C562          C  0.5446422  0.2125376  0.0501420    0.00000       Uiso       1.00
      C563          C  0.5440605  0.2329464  0.0715927    0.00000       Uiso       1.00
      C564          C  0.5414026  0.2320195  0.0933233    0.00000       Uiso       1.00
      C565          C  0.5417947  0.2529179  0.1143507    0.00000       Uiso       1.00
      C566          C  0.5462698  0.2756349  0.1137358    0.00000       Uiso       1.00
      C567          C  0.5494547  0.2762696  0.0914728    0.00000       Uiso       1.00
      C568          C  0.5466059  0.2549577  0.0709100    0.00000       Uiso       1.00
        O4          O  0.5428325  0.1898051  0.0475736    0.00000       Uiso       1.00
      H322          H  0.5389238  0.2149609  0.0939567    0.00000       Uiso       1.00
      H323          H  0.5387602  0.2510056  0.1308880    0.00000       Uiso       1.00
      H324          H  0.5556034  0.2936710  0.0896045    0.00000       Uiso       1.00
      C569          C  0.5447057  0.3617227  0.0295813    0.00000       Uiso       1.00
      C570          C  0.5441470  0.3402794  0.0291142    0.00000       Uiso       1.00
      C571          C  0.5415418  0.3185598  0.0090936    0.00000       Uiso       1.00
      C572          C  0.5419502  0.2975411  0.0085718    0.00000       Uiso       1.00
      C573          C  0.5463845  0.2981499  0.0274531    0.00000       Uiso       1.00
      C574          C  0.5495202  0.3204039  0.0471847    0.00000       Uiso       1.00
      C575          C  0.5466589  0.3409562  0.0492785    0.00000       Uiso       1.00
        O5          O  0.5429034  0.3642918  0.0112235    0.00000       Uiso       1.00
      H325          H  0.5390814  0.3179250  0.9938679    0.00000       Uiso       1.00
      H326          H  0.5389535  0.2810135  0.9931375    0.00000       Uiso       1.00
      H327          H  0.5556510  0.3222840  0.0603255    0.00000       Uiso       1.00
      C576          C  0.5446389  0.3822334  0.1993099    0.00000       Uiso       1.00
      C577          C  0.5440639  0.3826901  0.1788969    0.00000       Uiso       1.00
      C578          C  0.5414656  0.4027139  0.1798039    0.00000       Uiso       1.00
      C579          C  0.5418774  0.4032409  0.1588997    0.00000       Uiso       1.00
      C580          C  0.5462990  0.3843531  0.1361927    0.00000       Uiso       1.00
      C581          C  0.5494174  0.3646099  0.1355811    0.00000       Uiso       1.00
      C582          C  0.5465621  0.3625196  0.1569013    0.00000       Uiso       1.00
        O6          O  0.5428634  0.4006062  0.2220289    0.00000       Uiso       1.00
      H328          H  0.5390139  0.4179412  0.1968573    0.00000       Uiso       1.00
      H329          H  0.5388955  0.4186856  0.1608057    0.00000       Uiso       1.00
      H330          H  0.5555360  0.3514601  0.1181886    0.00000       Uiso       1.00
        B1          B  0.5451759  0.3902760  0.2352429    0.00000       Uiso       1.00
        B2          B  0.5451942  0.3901430  0.0215645    0.00000       Uiso       1.00
        B3          B  0.5451720  0.1766040  0.0217107    0.00000       Uiso       1.00
      C583          C  0.1983269  0.3831456  0.5477746    0.00000       Uiso       1.00
      C584          C  0.1773411  0.3842479  0.5490300    0.00000       Uiso       1.00
      C585          C  0.1766739  0.4060155  0.5514698    0.00000       Uiso       1.00
      C586          C  0.1559329  0.4064509  0.5514588    0.00000       Uiso       1.00
      C587          C  0.1358715  0.3847701  0.5476170    0.00000       Uiso       1.00
      C588          C  0.1370919  0.3629543  0.5448244    0.00000       Uiso       1.00
      C589          C  0.1567007  0.3626206  0.5472263    0.00000       Uiso       1.00
        O7          O  0.2203323  0.4023344  0.5483009    0.00000       Uiso       1.00
      H331          H  0.1923380  0.4227282  0.5534092    0.00000       Uiso       1.00
      H332          H  0.1560224  0.4238816  0.5542179    0.00000       Uiso       1.00
      H333          H  0.1234574  0.3457935  0.5391973    0.00000       Uiso       1.00
      C590          C  0.0488556  0.2135457  0.5478392    0.00000       Uiso       1.00
      C591          C  0.0696829  0.2345379  0.5491093    0.00000       Uiso       1.00
      C592          C  0.0896857  0.2352057  0.5515372    0.00000       Uiso       1.00
      C593          C  0.1108738  0.2559465  0.5515190    0.00000       Uiso       1.00
      C594          C  0.1130927  0.2760051  0.5476757    0.00000       Uiso       1.00
      C595          C  0.0928346  0.2747864  0.5449071    0.00000       Uiso       1.00
      C596          C  0.0704898  0.2551793  0.5473191    0.00000       Uiso       1.00
        O8          O  0.0455303  0.1915310  0.5483325    0.00000       Uiso       1.00
      H334          H  0.0888081  0.2195399  0.5534605    0.00000       Uiso       1.00
      H335          H  0.1254611  0.2558531  0.5542662    0.00000       Uiso       1.00
      H336          H  0.0949212  0.2884131  0.5392817    0.00000       Uiso       1.00
      C597          C  0.0287010  0.3629853  0.5478163    0.00000       Uiso       1.00
      C598          C  0.0275908  0.3421684  0.5491053    0.00000       Uiso       1.00
      C599          C  0.0058165  0.3221847  0.5515672    0.00000       Uiso       1.00
      C600          C  0.0053718  0.3010033  0.5515797    0.00000       Uiso       1.00
      C601          C  0.0270509  0.2987782  0.5477400    0.00000       Uiso       1.00
      C602          C  0.0488725  0.3190190  0.5449385    0.00000       Uiso       1.00
      C603          C  0.0492156  0.3413550  0.5473089    0.00000       Uiso       1.00
        O9          O  0.0095108  0.3663209  0.5483381    0.00000       Uiso       1.00
      H337          H  0.9891108  0.3230797  0.5534931    0.00000       Uiso       1.00
      H338          H  0.9879382  0.2864246  0.5543447    0.00000       Uiso       1.00
      H339          H  0.0660320  0.3169202  0.5393201    0.00000       Uiso       1.00
      C604          C  0.0501371  0.3822441  0.5446417    0.00000       Uiso       1.00
      C605          C  0.0715880  0.3827046  0.5440602    0.00000       Uiso       1.00
      C606          C  0.0933187  0.4027042  0.5414023    0.00000       Uiso       1.00
      C607          C  0.1143463  0.4032254  0.5417945    0.00000       Uiso       1.00
      C608          C  0.1137316  0.3843688  0.5462698    0.00000       Uiso       1.00
      C609          C  0.0914684  0.3646560  0.5494547    0.00000       Uiso       1.00
      C610          C  0.0709055  0.3625561  0.5466058    0.00000       Uiso       1.00
       O10          O  0.0475685  0.4005984  0.5428319    0.00000       Uiso       1.00
      H340          H  0.0939519  0.4179173  0.5389234    0.00000       Uiso       1.00
      H341          H  0.1308836  0.4186406  0.5387601    0.00000       Uiso       1.00
      H342          H  0.0896003  0.3515350  0.5556034    0.00000       Uiso       1.00
      C611          C  0.0295776  0.2125630  0.5447066    0.00000       Uiso       1.00
      C612          C  0.0291104  0.2329804  0.5441476    0.00000       Uiso       1.00
      C613          C  0.0090895  0.2320740  0.5415423    0.00000       Uiso       1.00
      C614          C  0.0085676  0.2529793  0.5419506    0.00000       Uiso       1.00
      C615          C  0.0274489  0.2756859  0.5463848    0.00000       Uiso       1.00
      C616          C  0.0471807  0.2762994  0.5495206    0.00000       Uiso       1.00
      C617          C  0.0492747  0.2549798  0.5466595    0.00000       Uiso       1.00
       O11          O  0.0112198  0.1898338  0.5429043    0.00000       Uiso       1.00
      H343          H  0.9938640  0.2150220  0.5390809    0.00000       Uiso       1.00
      H344          H  0.9931333  0.2510751  0.5389528    0.00000       Uiso       1.00
      H345          H  0.0603214  0.2936907  0.5556514    0.00000       Uiso       1.00
      C618          C  0.1993066  0.3617144  0.5446398    0.00000       Uiso       1.00
      C619          C  0.1788936  0.3402697  0.5440647    0.00000       Uiso       1.00
      C620          C  0.1798007  0.3185548  0.5414667    0.00000       Uiso       1.00
      C621          C  0.1588966  0.2975355  0.5418785    0.00000       Uiso       1.00
      C622          C  0.1361894  0.2981377  0.5462999    0.00000       Uiso       1.00
      C623          C  0.1355775  0.3203875  0.5494182    0.00000       Uiso       1.00
      C624          C  0.1568978  0.3409426  0.5465627    0.00000       Uiso       1.00
       O12          O  0.2220258  0.3642852  0.5428643    0.00000       Uiso       1.00
      H346          H  0.1968543  0.3179293  0.5390150    0.00000       Uiso       1.00
      H347          H  0.1608026  0.2810148  0.5388967    0.00000       Uiso       1.00
      H348          H  0.1181849  0.3222632  0.5555365    0.00000       Uiso       1.00
        B4          B  0.2352397  0.3901418  0.5451767    0.00000       Uiso       1.00
        B5          B  0.0215610  0.1766147  0.5451953    0.00000       Uiso       1.00
        B6          B  0.0217055  0.3902760  0.5451713    0.00000       Uiso       1.00
       N31          N  0.6344584  0.7773832  0.9553794    0.00000       Uiso       1.00
      C625          C  0.6467937  0.8010821  0.9553704    0.00000       Uiso       1.00
      C626          C  0.6107594  0.8010821  0.9553702    0.00000       Uiso       1.00
       N32          N  0.6344584  0.8124545  0.9553792    0.00000       Uiso       1.00
       N33          N  0.5993870  0.7773832  0.9553792    0.00000       Uiso       1.00
      C627          C  0.6107596  0.7650478  0.9553704    0.00000       Uiso       1.00
      C628          C  0.1983261  0.3629557  0.0286963    0.00000       Uiso       1.00
      C629          C  0.1773404  0.3421231  0.0275940    0.00000       Uiso       1.00
      C630          C  0.1766734  0.3221283  0.0058263    0.00000       Uiso       1.00
      C631          C  0.1559324  0.3009409  0.0053909    0.00000       Uiso       1.00
      C632          C  0.1358709  0.2987184  0.0270716    0.00000       Uiso       1.00
      C633          C  0.1370913  0.3189619  0.0488874    0.00000       Uiso       1.00
      C634          C  0.1567000  0.3413062  0.0492212    0.00000       Uiso       1.00
       O13          O  0.2203316  0.3662988  0.0095077    0.00000       Uiso       1.00
      H349          H  0.1923386  0.3230195  0.9891137    0.00000       Uiso       1.00
      H350          H  0.1560230  0.2863593  0.9879601    0.00000       Uiso       1.00
      H351          H  0.1234567  0.3168610  0.0660482    0.00000       Uiso       1.00
      C635          C  0.0488544  0.3831482  0.1982954    0.00000       Uiso       1.00
      C636          C  0.0696816  0.3842534  0.1773034    0.00000       Uiso       1.00
      C637          C  0.0896844  0.4060162  0.1766356    0.00000       Uiso       1.00
      C638          C  0.1108725  0.4064454  0.1558949    0.00000       Uiso       1.00
      C639          C  0.1130916  0.3847625  0.1358363    0.00000       Uiso       1.00
      C640          C  0.0928336  0.3629547  0.1370550    0.00000       Uiso       1.00
      C641          C  0.0704887  0.3626288  0.1566620    0.00000       Uiso       1.00
       O14          O  0.0455289  0.4023306  0.2203101    0.00000       Uiso       1.00
      H352          H  0.0888066  0.4227276  0.1923014    0.00000       Uiso       1.00
      H353          H  0.1254598  0.4238733  0.1559884    0.00000       Uiso       1.00
      H354          H  0.0949203  0.3457894  0.1234284    0.00000       Uiso       1.00
      C642          C  0.0287007  0.2135323  0.0488559    0.00000       Uiso       1.00
      C643          C  0.0275904  0.2345279  0.0696728    0.00000       Uiso       1.00
      C644          C  0.0058161  0.2351990  0.0896563    0.00000       Uiso       1.00
      C645          C  0.0053712  0.2559480  0.1108377    0.00000       Uiso       1.00
      C646          C  0.0270503  0.2760125  0.1130629    0.00000       Uiso       1.00
      C647          C  0.0488718  0.2747918  0.0928222    0.00000       Uiso       1.00
      C648          C  0.0492152  0.2551695  0.0704862    0.00000       Uiso       1.00
       O15          O  0.0095106  0.1915284  0.0455201    0.00000       Uiso       1.00
      H355          H  0.9891104  0.2195242  0.0887612    0.00000       Uiso       1.00
      H356          H  0.9879375  0.2558578  0.1254163    0.00000       Uiso       1.00
      H357          H  0.0660314  0.2884317  0.0949211    0.00000       Uiso       1.00
      C649          C  0.0501369  0.2125351  0.0295972    0.00000       Uiso       1.00
      C650          C  0.0715878  0.2329440  0.0291368    0.00000       Uiso       1.00
      C651          C  0.0933185  0.2320172  0.0091373    0.00000       Uiso       1.00
      C652          C  0.1143460  0.2529157  0.0086162    0.00000       Uiso       1.00
      C653          C  0.1137311  0.2756326  0.0274727    0.00000       Uiso       1.00
      C654          C  0.0914679  0.2762672  0.0471855    0.00000       Uiso       1.00
      C655          C  0.0709051  0.2549553  0.0492852    0.00000       Uiso       1.00
       O16          O  0.0475684  0.1898026  0.0112429    0.00000       Uiso       1.00
      H358          H  0.0939528  0.2149590  0.9939243    0.00000       Uiso       1.00
      H359          H  0.1308843  0.2510038  0.9932011    0.00000       Uiso       1.00
      H360          H  0.0895997  0.2936686  0.0603064    0.00000       Uiso       1.00
      C656          C  0.0295764  0.3617202  0.1992780    0.00000       Uiso       1.00
      C657          C  0.0291093  0.3402768  0.1788607    0.00000       Uiso       1.00
      C658          C  0.0090886  0.3185571  0.1797669    0.00000       Uiso       1.00
      C659          C  0.0085668  0.2975384  0.1588617    0.00000       Uiso       1.00
      C660          C  0.0274481  0.2981473  0.1361552    0.00000       Uiso       1.00
      C661          C  0.0471798  0.3204014  0.1355418    0.00000       Uiso       1.00
      C662          C  0.0492737  0.3409537  0.1568613    0.00000       Uiso       1.00
       O17          O  0.0112186  0.3642892  0.2220071    0.00000       Uiso       1.00
      H361          H  0.9938630  0.3179220  0.1968189    0.00000       Uiso       1.00
      H362          H  0.9931325  0.2810104  0.1607659    0.00000       Uiso       1.00
      H363          H  0.0603205  0.3222816  0.1181505    0.00000       Uiso       1.00
      C663          C  0.1993057  0.3822316  0.0501276    0.00000       Uiso       1.00
      C664          C  0.1788927  0.3826882  0.0715722    0.00000       Uiso       1.00
      C665          C  0.1797997  0.4027120  0.0932871    0.00000       Uiso       1.00
      C666          C  0.1588955  0.4032390  0.1143062    0.00000       Uiso       1.00
      C667          C  0.1361883  0.3843510  0.1137040    0.00000       Uiso       1.00
      C668          C  0.1355766  0.3646077  0.0914542    0.00000       Uiso       1.00
      C669          C  0.1568969  0.3625176  0.0708992    0.00000       Uiso       1.00
       O18          O  0.2220249  0.4006045  0.0475569    0.00000       Uiso       1.00
      H364          H  0.1968532  0.4179393  0.0939127    0.00000       Uiso       1.00
      H365          H  0.1608014  0.4186837  0.1308270    0.00000       Uiso       1.00
      H366          H  0.1181840  0.3514579  0.0895784    0.00000       Uiso       1.00
        B7          B  0.2352389  0.3902744  0.0217004    0.00000       Uiso       1.00
        B8          B  0.0215596  0.3901404  0.2352263    0.00000       Uiso       1.00
        B9          B  0.0217054  0.1766014  0.0215652    0.00000       Uiso       1.00
       N34          N  0.9553795  0.7773847  0.5993893    0.00000       Uiso       1.00
      C670          C  0.9553704  0.8010834  0.6107616    0.00000       Uiso       1.00
      C671          C  0.9553705  0.8010837  0.6467960    0.00000       Uiso       1.00
       N35          N  0.9553794  0.8124560  0.6344604    0.00000       Uiso       1.00
       N36          N  0.9553795  0.7773849  0.6344607    0.00000       Uiso       1.00
      C672          C  0.9553706  0.7650495  0.6107618    0.00000       Uiso       1.00
      C673          C  0.0286960  0.8640692  0.1983303    0.00000       Uiso       1.00
      C674          C  0.0275936  0.8628138  0.1773447    0.00000       Uiso       1.00
      C675          C  0.0058257  0.8603737  0.1766774    0.00000       Uiso       1.00
      C676          C  0.0053903  0.8603846  0.1559365    0.00000       Uiso       1.00
      C677          C  0.0270711  0.8642265  0.1358752    0.00000       Uiso       1.00
      C678          C  0.0488871  0.8670194  0.1370957    0.00000       Uiso       1.00
      C679          C  0.0492210  0.8646176  0.1567044    0.00000       Uiso       1.00
       O19          O  0.0095072  0.8635429  0.2203356    0.00000       Uiso       1.00
      H367          H  0.9891132  0.8584343  0.1923414    0.00000       Uiso       1.00
      H368          H  0.9879596  0.8576254  0.1560260    0.00000       Uiso       1.00
      H369          H  0.0660480  0.8726466  0.1234612    0.00000       Uiso       1.00
      C680          C  0.1982965  0.8640054  0.0488599    0.00000       Uiso       1.00
      C681          C  0.1773043  0.8627353  0.0696871    0.00000       Uiso       1.00
      C682          C  0.1766366  0.8603076  0.0896898    0.00000       Uiso       1.00
      C683          C  0.1558957  0.8603256  0.1108777    0.00000       Uiso       1.00
      C684          C  0.1358369  0.8641687  0.1130966    0.00000       Uiso       1.00
      C685          C  0.1370556  0.8669372  0.0928386    0.00000       Uiso       1.00
      C686          C  0.1566627  0.8645254  0.0704940    0.00000       Uiso       1.00
       O20          O  0.2203114  0.8635125  0.0455347    0.00000       Uiso       1.00
      H370          H  0.1923026  0.8583844  0.0888122    0.00000       Uiso       1.00
      H371          H  0.1559893  0.8575785  0.1254650    0.00000       Uiso       1.00
      H372          H  0.1234287  0.8725625  0.0949252    0.00000       Uiso       1.00
      C687          C  0.0488556  0.8640270  0.0287053    0.00000       Uiso       1.00
      C688          C  0.0696727  0.8627381  0.0275951    0.00000       Uiso       1.00
      C689          C  0.0896564  0.8602763  0.0058210    0.00000       Uiso       1.00
      C690          C  0.1108379  0.8602640  0.0053762    0.00000       Uiso       1.00
      C691          C  0.1130632  0.8641038  0.0270553    0.00000       Uiso       1.00
      C692          C  0.0928223  0.8669053  0.0488766    0.00000       Uiso       1.00
      C693          C  0.0704861  0.8645347  0.0492198    0.00000       Uiso       1.00
       O21          O  0.0455198  0.8635050  0.0095152    0.00000       Uiso       1.00
      H373          H  0.0887622  0.8583506  0.9891152    0.00000       Uiso       1.00
      H374          H  0.1254177  0.8574995  0.9879425    0.00000       Uiso       1.00
      H375          H  0.0949212  0.8725236  0.0660361    0.00000       Uiso       1.00
      C694          C  0.0295966  0.8672014  0.0501412    0.00000       Uiso       1.00
      C695          C  0.0291363  0.8677830  0.0715921    0.00000       Uiso       1.00
      C696          C  0.0091366  0.8704408  0.0933226    0.00000       Uiso       1.00
      C697          C  0.0086155  0.8700488  0.1143501    0.00000       Uiso       1.00
      C698          C  0.0274723  0.8655736  0.1137354    0.00000       Uiso       1.00
      C699          C  0.0471852  0.8623888  0.0914724    0.00000       Uiso       1.00
      C700          C  0.0492849  0.8652377  0.0709096    0.00000       Uiso       1.00
       O22          O  0.0112422  0.8690110  0.0475726    0.00000       Uiso       1.00
      H376          H  0.9939236  0.8729196  0.0939558    0.00000       Uiso       1.00
      H377          H  0.9932004  0.8730831  0.1308873    0.00000       Uiso       1.00
      H378          H  0.0603063  0.8562402  0.0896043    0.00000       Uiso       1.00
      C701          C  0.1992791  0.8671380  0.0295820    0.00000       Uiso       1.00
      C702          C  0.1788615  0.8676968  0.0291147    0.00000       Uiso       1.00
      C703          C  0.1797678  0.8703020  0.0090940    0.00000       Uiso       1.00
      C704          C  0.1588624  0.8698936  0.0085720    0.00000       Uiso       1.00
      C705          C  0.1361557  0.8654593  0.0274532    0.00000       Uiso       1.00
      C706          C  0.1355423  0.8623235  0.0471849    0.00000       Uiso       1.00
      C707          C  0.1568620  0.8651848  0.0492789    0.00000       Uiso       1.00
       O23          O  0.2220084  0.8689405  0.0112243    0.00000       Uiso       1.00
      H379          H  0.1968209  0.8727639  0.9938684    0.00000       Uiso       1.00
      H380          H  0.1607675  0.8728916  0.9931377    0.00000       Uiso       1.00
      H381          H  0.1181509  0.8561927  0.0603256    0.00000       Uiso       1.00
      C708          C  0.0501274  0.8672042  0.1993100    0.00000       Uiso       1.00
      C709          C  0.0715722  0.8677794  0.1788972    0.00000       Uiso       1.00
      C710          C  0.0932873  0.8703777  0.1798043    0.00000       Uiso       1.00
      C711          C  0.1143066  0.8699659  0.1589002    0.00000       Uiso       1.00
      C712          C  0.1137043  0.8655444  0.1361932    0.00000       Uiso       1.00
      C713          C  0.0914544  0.8624260  0.1355813    0.00000       Uiso       1.00
      C714          C  0.0708992  0.8652813  0.1569014    0.00000       Uiso       1.00
       O24          O  0.0475567  0.8689798  0.2220291    0.00000       Uiso       1.00
      H382          H  0.0939129  0.8728294  0.1968577    0.00000       Uiso       1.00
      H383          H  0.1308274  0.8729479  0.1608063    0.00000       Uiso       1.00
      H384          H  0.0895786  0.8563076  0.1181888    0.00000       Uiso       1.00
       B10          B  0.0217000  0.8666672  0.2352429    0.00000       Uiso       1.00
       B11          B  0.2352277  0.8666496  0.0215655    0.00000       Uiso       1.00
       B12          B  0.0215645  0.8666716  0.0217097    0.00000       Uiso       1.00
