data_96
_audit_creation_date              0000-00-00
_audit_creation_method            'LanYouShi'
_symmetry_space_group_name_H-M    'P1'
_cell_length_a                    74.4259033
_cell_length_b                    74.4260025
_cell_length_c                    74.4260025
_cell_angle_alpha                 120.0000000
_cell_angle_beta                  60.0000000
_cell_angle_gamma                 120.0000000
loop_
_atom_site_label
_atom_site_type_symbol
_atom_site_fract_x
_atom_site_fract_y
_atom_site_fract_z
_atom_site_U_iso_or_equiv
_atom_site_adp_type
_atom_site_occupancy
        C1          C  0.5873156  0.7135262  0.5873089    0.00000       Uiso       1.00
        C2          C  0.5985973  0.7020988  0.5662162    0.00000       Uiso       1.00
        C3          C  0.5889059  0.6791860  0.5565274    0.00000       Uiso       1.00
        C4          C  0.5662228  0.7020989  0.5985907    0.00000       Uiso       1.00
        C5          C  0.5564410  0.6792599  0.5889249    0.00000       Uiso       1.00
        C6          C  0.5675869  0.6672040  0.5676899    0.00000       Uiso       1.00
        H1          H  0.3292387  0.4596274  0.5320618    0.00000       Uiso       1.00
        H2          H  0.5567641  0.7111717  0.6157855    0.00000       Uiso       1.00
        C7          C  0.5389272  0.4127221  0.2865048    0.00000       Uiso       1.00
        C8          C  0.5373109  0.4338149  0.2979322    0.00000       Uiso       1.00
        C9          C  0.5339193  0.4435969  0.3207710    0.00000       Uiso       1.00
       C10          C  0.5373109  0.4014404  0.2979322    0.00000       Uiso       1.00
       C11          C  0.5337781  0.4111319  0.3208451    0.00000       Uiso       1.00
       C12          C  0.5319519  0.4324506  0.3328262    0.00000       Uiso       1.00
        H3          H  0.5983451  0.6707958  0.5404006    0.00000       Uiso       1.00
        H4          H  0.5386476  0.4432736  0.2888594    0.00000       Uiso       1.00
       C13          C  0.2865114  0.4127222  0.5389205    0.00000       Uiso       1.00
       C14          C  0.2979388  0.4014406  0.5373042    0.00000       Uiso       1.00
       C15          C  0.3207780  0.4111045  0.5339099    0.00000       Uiso       1.00
       C16          C  0.2979388  0.4338150  0.5373042    0.00000       Uiso       1.00
       C17          C  0.3208521  0.4435023  0.5337679    0.00000       Uiso       1.00
       C18          C  0.3328342  0.4323376  0.5319397    0.00000       Uiso       1.00
        H5          H  0.5404082  0.4679642  0.5983394    0.00000       Uiso       1.00
        H6          H  0.2888659  0.3842457  0.5386409    0.00000       Uiso       1.00
       C19          C  0.5873157  0.4611107  0.5873089    0.00000       Uiso       1.00
       C20          C  0.5662228  0.4627270  0.5985907    0.00000       Uiso       1.00
       C21          C  0.5565338  0.4662594  0.5888991    0.00000       Uiso       1.00
       C22          C  0.5985973  0.4627270  0.5662162    0.00000       Uiso       1.00
       C23          C  0.5889314  0.4661176  0.5564340    0.00000       Uiso       1.00
       C24          C  0.5676964  0.4680842  0.5675799    0.00000       Uiso       1.00
        H7          H  0.5320745  0.4016909  0.3292341    0.00000       Uiso       1.00
       C25          C  0.5000175  0.5000197  0.5000080    0.00000       Uiso       1.00
        H8          H  0.6157923  0.4613903  0.5567575    0.00000       Uiso       1.00
        N1          N  0.6213731  0.7141164  0.5536876    0.00000       Uiso       1.00
        H9          H  0.6270416  0.7034382  0.5388610    0.00000       Uiso       1.00
       H10          H  0.6207498  0.7261491  0.5515584    0.00000       Uiso       1.00
        N2          N  0.5536942  0.4609565  0.6213663    0.00000       Uiso       1.00
       H11          H  0.5388677  0.4624768  0.6270349    0.00000       Uiso       1.00
       H12          H  0.5515650  0.4461714  0.6207431    0.00000       Uiso       1.00
        N3          N  0.2859212  0.4463437  0.5390747    0.00000       Uiso       1.00
       H13          H  0.2965995  0.4611702  0.5375544    0.00000       Uiso       1.00
       H14          H  0.2792225  0.4377463  0.5269962    0.00000       Uiso       1.00
        N4          N  0.5390814  0.3786648  0.2859147    0.00000       Uiso       1.00
       H15          H  0.5375611  0.3729962  0.2965929    0.00000       Uiso       1.00
       H16          H  0.5270029  0.3684848  0.2792159    0.00000       Uiso       1.00
        N5          N  0.5334197  0.6679159  0.6017066    0.00000       Uiso       1.00
       H17          H  0.5285921  0.6517736  0.5928555    0.00000       Uiso       1.00
       H18          H  0.5332375  0.6695968  0.6161235    0.00000       Uiso       1.00
        N6          N  0.3321239  0.3983213  0.5327999    0.00000       Uiso       1.00
       H19          H  0.3482666  0.4071723  0.5303345    0.00000       Uiso       1.00
       H20          H  0.3252288  0.3953237  0.5470813    0.00000       Uiso       1.00
        N7          N  0.6017135  0.4672223  0.5334129    0.00000       Uiso       1.00
       H21          H  0.5928622  0.4696853  0.5285848    0.00000       Uiso       1.00
       H22          H  0.6161300  0.4797769  0.5332313    0.00000       Uiso       1.00
        N8          N  0.5328136  0.4666177  0.3321146    0.00000       Uiso       1.00
       H23          H  0.5303499  0.4714456  0.3482571    0.00000       Uiso       1.00
       H24          H  0.5470958  0.4769991  0.3252172    0.00000       Uiso       1.00
       C26          C  0.5571156  0.6424575  0.5574518    0.00000       Uiso       1.00
       C27          C  0.5615349  0.6322056  0.5343962    0.00000       Uiso       1.00
       C28          C  0.5519298  0.6092071  0.5248579    0.00000       Uiso       1.00
       C29          C  0.5425586  0.6287854  0.5706797    0.00000       Uiso       1.00
       C30          C  0.5327010  0.6058197  0.5613630    0.00000       Uiso       1.00
       C31          C  0.5374200  0.5959678  0.5383765    0.00000       Uiso       1.00
       H25          H  0.5391113  0.6358960  0.5882940    0.00000       Uiso       1.00
       H26          H  0.5722593  0.6421431  0.5237880    0.00000       Uiso       1.00
       C32          C  0.5279141  0.4429221  0.3575712    0.00000       Uiso       1.00
       C33          C  0.5155628  0.4574716  0.3712433    0.00000       Uiso       1.00
       C34          C  0.5117718  0.4673302  0.3942086    0.00000       Uiso       1.00
       C35          C  0.5363076  0.4385127  0.3678220    0.00000       Uiso       1.00
       C36          C  0.5324527  0.4481187  0.3908190    0.00000       Uiso       1.00
       C37          C  0.5201963  0.4626197  0.4040588    0.00000       Uiso       1.00
       H27          H  0.5461369  0.4277968  0.3578884    0.00000       Uiso       1.00
       H28          H  0.5084996  0.4609123  0.3641326    0.00000       Uiso       1.00
       C38          C  0.3575805  0.4425715  0.5278989    0.00000       Uiso       1.00
       C39          C  0.3712505  0.4293402  0.5155554    0.00000       Uiso       1.00
       C40          C  0.3942184  0.4386558  0.5117636    0.00000       Uiso       1.00
       C41          C  0.3678328  0.4656259  0.5362837    0.00000       Uiso       1.00
       C42          C  0.3908298  0.4751616  0.5324277    0.00000       Uiso       1.00
       C43          C  0.4040703  0.4616446  0.5201804    0.00000       Uiso       1.00
       H29          H  0.3579018  0.4762384  0.5461063    0.00000       Uiso       1.00
       H30          H  0.3641321  0.4117231  0.5085000    0.00000       Uiso       1.00
       C44          C  0.5574588  0.4721214  0.5571087    0.00000       Uiso       1.00
       C45          C  0.5344043  0.4637299  0.5615207    0.00000       Uiso       1.00
       C46          C  0.5248660  0.4675871  0.5519176    0.00000       Uiso       1.00
       C47          C  0.5706863  0.4844706  0.5425580    0.00000       Uiso       1.00
       C48          C  0.5613697  0.4882614  0.5326998    0.00000       Uiso       1.00
       C49          C  0.5383843  0.4798414  0.5374141    0.00000       Uiso       1.00
       H31          H  0.5883000  0.4915306  0.5391157    0.00000       Uiso       1.00
       H32          H  0.5237997  0.4539010  0.5722376    0.00000       Uiso       1.00
       C50          C  0.5019618  0.4594413  0.5565951    0.00000       Uiso       1.00
       C51          C  0.4925932  0.4635857  0.5472448    0.00000       Uiso       1.00
       C52          C  0.5406051  0.4434464  0.4008991    0.00000       Uiso       1.00
       C53          C  0.5364639  0.4527991  0.4237614    0.00000       Uiso       1.00
        N9          N  0.5538312  0.4280360  0.3872218    0.00000       Uiso       1.00
       H33          H  0.5583285  0.4265712  0.3970498    0.00000       Uiso       1.00
       H34          H  0.5445938  0.4131106  0.3796855    0.00000       Uiso       1.00
       N10          N  0.5453399  0.4470626  0.4338448    0.00000       Uiso       1.00
       H35          H  0.5410236  0.4550138  0.4502546    0.00000       Uiso       1.00
       H36          H  0.5390303  0.4306580  0.4308503    0.00000       Uiso       1.00
       N11          N  0.4678973  0.4547166  0.5529826    0.00000       Uiso       1.00
       H37          H  0.4637583  0.4590362  0.5450313    0.00000       Uiso       1.00
       H38          H  0.4626238  0.4381477  0.5483781    0.00000       Uiso       1.00
       N12          N  0.4870073  0.4462166  0.5720071    0.00000       Uiso       1.00
       H39          H  0.4712154  0.4417221  0.5734788    0.00000       Uiso       1.00
       H40          H  0.4909651  0.4326352  0.5659187    0.00000       Uiso       1.00
       C54          C  0.5277418  0.5728104  0.5288844    0.00000       Uiso       1.00
       C55          C  0.5327781  0.5628715  0.5058798    0.00000       Uiso       1.00
       C56          C  0.5236213  0.5397664  0.4964859    0.00000       Uiso       1.00
       C57          C  0.5133173  0.5595906  0.5423944    0.00000       Uiso       1.00
       C58          C  0.5040461  0.5365919  0.5328519    0.00000       Uiso       1.00
       C59          C  0.5088170  0.5260241  0.5097206    0.00000       Uiso       1.00
       H41          H  0.4898455  0.5066964  0.4733978    0.00000       Uiso       1.00
       H42          H  0.4673502  0.5212631  0.5251966    0.00000       Uiso       1.00
       C60          C  0.5162110  0.4722982  0.4272153    0.00000       Uiso       1.00
       C61          C  0.5038977  0.4867163  0.4404369    0.00000       Uiso       1.00
       C62          C  0.4997135  0.4959891  0.4634363    0.00000       Uiso       1.00
       C63          C  0.5242503  0.4672708  0.4371536    0.00000       Uiso       1.00
       C64          C  0.5196941  0.4764267  0.4602595    0.00000       Uiso       1.00
       C65          C  0.5075109  0.4912219  0.4740034    0.00000       Uiso       1.00
       H43          H  0.5287319  0.5326850  0.4787651    0.00000       Uiso       1.00
       H44          H  0.5434779  0.5101677  0.4933118    0.00000       Uiso       1.00
       C66          C  0.4272259  0.4711403  0.5161970    0.00000       Uiso       1.00
       C67          C  0.4404464  0.4576298  0.5038934    0.00000       Uiso       1.00
       C68          C  0.4634456  0.4671741  0.4997099    0.00000       Uiso       1.00
       C69          C  0.4371640  0.4941469  0.5242271    0.00000       Uiso       1.00
       C70          C  0.4602700  0.5035422  0.5196710    0.00000       Uiso       1.00
       C71          C  0.4740127  0.4903070  0.5074999    0.00000       Uiso       1.00
       H45          H  0.4787712  0.4748165  0.5287139    0.00000       Uiso       1.00
       H46          H  0.4933322  0.5266320  0.5434665    0.00000       Uiso       1.00
       C72          C  0.5288922  0.4838285  0.5277360    0.00000       Uiso       1.00
       C73          C  0.5058861  0.4757952  0.5327691    0.00000       Uiso       1.00
       C74          C  0.4964927  0.4803522  0.5236124    0.00000       Uiso       1.00
       C75          C  0.5424034  0.4961349  0.5133110    0.00000       Uiso       1.00
       C76          C  0.5328617  0.5003177  0.5040362    0.00000       Uiso       1.00
       C77          C  0.5097294  0.4925272  0.5088089    0.00000       Uiso       1.00
       H47          H  0.4734091  0.4565624  0.4898572    0.00000       Uiso       1.00
       H48          H  0.5252314  0.4713230  0.4673403    0.00000       Uiso       1.00
       C78          C  0.4237719  0.5074397  0.5364310    0.00000       Uiso       1.00
       C79          C  0.4009090  0.4980690  0.5405725    0.00000       Uiso       1.00
       C80          C  0.4304206  0.4347316  0.4956668    0.00000       Uiso       1.00
       C81          C  0.4076151  0.4253728  0.4995253    0.00000       Uiso       1.00
       C82          C  0.5472597  0.5762625  0.4925853    0.00000       Uiso       1.00
       C83          C  0.5566131  0.5991260  0.5019526    0.00000       Uiso       1.00
       C84          C  0.5086701  0.5696175  0.5652936    0.00000       Uiso       1.00
       C85          C  0.5182582  0.5924258  0.5746501    0.00000       Uiso       1.00
       C86          C  0.5653018  0.5043625  0.5086673    0.00000       Uiso       1.00
       C87          C  0.5746562  0.5005020  0.5182592    0.00000       Uiso       1.00
       C88          C  0.4956634  0.4913544  0.4304109    0.00000       Uiso       1.00
       C89          C  0.4995255  0.4817654  0.4076038    0.00000       Uiso       1.00
       N13          N  0.5720345  0.6128093  0.4870001    0.00000       Uiso       1.00
       H49          H  0.5735103  0.6029850  0.4712072    0.00000       Uiso       1.00
       H50          H  0.5659510  0.6242627  0.4909545    0.00000       Uiso       1.00
       N14          N  0.5530074  0.5661774  0.4678884    0.00000       Uiso       1.00
       H51          H  0.5635168  0.5780845  0.4610015    0.00000       Uiso       1.00
       H52          H  0.5601747  0.5550021  0.4621689    0.00000       Uiso       1.00
       N15          N  0.5128897  0.6024345  0.5993097    0.00000       Uiso       1.00
       H53          H  0.5023532  0.5905297  0.6061958    0.00000       Uiso       1.00
       H54          H  0.5268632  0.6096792  0.6029426    0.00000       Uiso       1.00
       N16          N  0.4933739  0.5559199  0.5802417    0.00000       Uiso       1.00
       H55          H  0.4919334  0.5657440  0.5960293    0.00000       Uiso       1.00
       H56          H  0.4784247  0.5483333  0.5784382    0.00000       Uiso       1.00
       N17          N  0.4338570  0.5321367  0.5452949    0.00000       Uiso       1.00
       H57          H  0.4219499  0.5390236  0.5535801    0.00000       Uiso       1.00
       H58          H  0.4413518  0.5360387  0.5555497    0.00000       Uiso       1.00
       N18          N  0.3872310  0.5130267  0.5537874    0.00000       Uiso       1.00
       H59          H  0.3970585  0.5288181  0.5582799    0.00000       Uiso       1.00
       H60          H  0.3796958  0.5111704  0.5445447    0.00000       Uiso       1.00
       N19          N  0.4441217  0.4197868  0.4823173    0.00000       Uiso       1.00
       H61          H  0.4343000  0.4039985  0.4777917    0.00000       Uiso       1.00
       H62          H  0.4555357  0.4237981  0.4687535    0.00000       Uiso       1.00
       N20          N  0.3976139  0.4007128  0.4902367    0.00000       Uiso       1.00
       H63          H  0.4095223  0.3938315  0.4819829    0.00000       Uiso       1.00
       H64          H  0.3862421  0.3947438  0.5026532    0.00000       Uiso       1.00
       N21          N  0.4902301  0.4871265  0.3976014    0.00000       Uiso       1.00
       H65          H  0.4819716  0.4976586  0.4095092    0.00000       Uiso       1.00
       H66          H  0.5026437  0.4941417  0.3862297    0.00000       Uiso       1.00
       N22          N  0.4823036  0.5066413  0.4441136    0.00000       Uiso       1.00
       H67          H  0.4777734  0.5080779  0.4342926    0.00000       Uiso       1.00
       H68          H  0.4687424  0.5004752  0.4555260    0.00000       Uiso       1.00
       N23          N  0.5802467  0.5177094  0.4933686    0.00000       Uiso       1.00
       H69          H  0.5960349  0.5222365  0.4919288    0.00000       Uiso       1.00
       H70          H  0.5784435  0.5085399  0.4784195    0.00000       Uiso       1.00
       N24          N  0.5993159  0.5097899  0.5128919    0.00000       Uiso       1.00
       H71          H  0.6061994  0.5180450  0.5023566    0.00000       Uiso       1.00
       H72          H  0.6029474  0.5201520  0.5268660    0.00000       Uiso       1.00
       C90          C  0.0100601  0.7135264  0.5873090    0.00000       Uiso       1.00
       C91          C  0.0084438  0.7020990  0.5985907    0.00000       Uiso       1.00
       C92          C  0.0049112  0.6791861  0.5888993    0.00000       Uiso       1.00
       C93          C  0.0084438  0.7020990  0.5662162    0.00000       Uiso       1.00
       C94          C  0.0050523  0.6792600  0.5564345    0.00000       Uiso       1.00
       C95          C  0.0030855  0.6672041  0.5675803    0.00000       Uiso       1.00
       H73          H  0.0694853  0.4596275  0.3292324    0.00000       Uiso       1.00
       H74          H  0.0097804  0.7111719  0.5567575    0.00000       Uiso       1.00
       C96          C  0.0584487  0.4127223  0.5389207    0.00000       Uiso       1.00
       C97          C  0.0697304  0.4338151  0.5373044    0.00000       Uiso       1.00
       C98          C  0.0600652  0.4435971  0.5339128    0.00000       Uiso       1.00
       C99          C  0.0373559  0.4014407  0.5373044    0.00000       Uiso       1.00
      C100          C  0.0276673  0.4111322  0.5337716    0.00000       Uiso       1.00
      C101          C  0.0388310  0.4324508  0.5319454    0.00000       Uiso       1.00
       H75          H  0.0032085  0.6707959  0.5983385    0.00000       Uiso       1.00
       H76          H  0.0869253  0.4432738  0.5386410    0.00000       Uiso       1.00
      C102          C  0.0584486  0.4127224  0.2865052    0.00000       Uiso       1.00
      C103          C  0.0373558  0.4014407  0.2979325    0.00000       Uiso       1.00
      C104          C  0.0275749  0.4111047  0.3207717    0.00000       Uiso       1.00
      C105          C  0.0697303  0.4338152  0.2979325    0.00000       Uiso       1.00
      C106          C  0.0600406  0.4435024  0.3208458    0.00000       Uiso       1.00
      C107          C  0.0387220  0.4323378  0.3328279    0.00000       Uiso       1.00
       H77          H  0.8003753  0.4679642  0.5404016    0.00000       Uiso       1.00
       H78          H  0.0278970  0.3842458  0.2888597    0.00000       Uiso       1.00
      C108          C  0.7576448  0.4611108  0.5873089    0.00000       Uiso       1.00
      C109          C  0.7690722  0.4627270  0.5662162    0.00000       Uiso       1.00
      C110          C  0.7919850  0.4662594  0.5565273    0.00000       Uiso       1.00
      C111          C  0.7690722  0.4627271  0.5985907    0.00000       Uiso       1.00
      C112          C  0.7919111  0.4661177  0.5889247    0.00000       Uiso       1.00
      C113          C  0.8039666  0.4680843  0.5676898    0.00000       Uiso       1.00
       H79          H  0.0115408  0.4016911  0.5320680    0.00000       Uiso       1.00
      C114          C  0.9711530  0.5000198  0.5000110    0.00000       Uiso       1.00
       H80          H  0.7599994  0.4613904  0.6157856    0.00000       Uiso       1.00
       N25          N  0.0102143  0.7141165  0.6213664    0.00000       Uiso       1.00
       H81          H  0.0086940  0.7034383  0.6270350    0.00000       Uiso       1.00
       H82          H  0.0249994  0.7261493  0.6207431    0.00000       Uiso       1.00
       N26          N  0.7570547  0.4609566  0.5536876    0.00000       Uiso       1.00
       H83          H  0.7677329  0.4624768  0.5388610    0.00000       Uiso       1.00
       H84          H  0.7450219  0.4461714  0.5515584    0.00000       Uiso       1.00
       N27          N  0.0925060  0.4463438  0.2859150    0.00000       Uiso       1.00
       H85          H  0.0981745  0.4611703  0.2965932    0.00000       Uiso       1.00
       H86          H  0.1026859  0.4377465  0.2792163    0.00000       Uiso       1.00
       N28          N  0.0248272  0.3786650  0.5390748    0.00000       Uiso       1.00
       H87          H  0.0100007  0.3729964  0.5375546    0.00000       Uiso       1.00
       H88          H  0.0334246  0.3684850  0.5269964    0.00000       Uiso       1.00
       N29          N  0.0039481  0.6679161  0.5334131    0.00000       Uiso       1.00
       H89          H  0.0014844  0.6517737  0.5285856    0.00000       Uiso       1.00
       H90          H  0.9913946  0.6695969  0.5332310    0.00000       Uiso       1.00
       N30          N  0.0045557  0.3983214  0.3321177    0.00000       Uiso       1.00
       H91          H  0.9997299  0.4071724  0.3482603    0.00000       Uiso       1.00
       H92          H  0.9941725  0.3953238  0.3252225    0.00000       Uiso       1.00
       N31          N  0.8032547  0.4672224  0.6017069    0.00000       Uiso       1.00
       H93          H  0.8193971  0.4696854  0.5928556    0.00000       Uiso       1.00
       H94          H  0.8015743  0.4797769  0.6161233    0.00000       Uiso       1.00
       N32          N  0.0728480  0.4666179  0.5328071    0.00000       Uiso       1.00
       H95          H  0.0639972  0.4714458  0.5303434    0.00000       Uiso       1.00
       H96          H  0.0758447  0.4769993  0.5470892    0.00000       Uiso       1.00
      C115          C  0.9990490  0.6424576  0.5571091    0.00000       Uiso       1.00
      C116          C  0.0074329  0.6322058  0.5615283    0.00000       Uiso       1.00
      C117          C  0.0035778  0.6092073  0.5519233    0.00000       Uiso       1.00
      C118          C  0.9867060  0.6287855  0.5425520    0.00000       Uiso       1.00
      C119          C  0.9829147  0.6058198  0.5326945    0.00000       Uiso       1.00
      C120          C  0.9913303  0.5959679  0.5374135    0.00000       Uiso       1.00
       H97          H  0.9796497  0.6358961  0.5391047    0.00000       Uiso       1.00
       H98          H  0.0172542  0.6421432  0.5722528    0.00000       Uiso       1.00
      C121          C  0.0285954  0.4429223  0.5279076    0.00000       Uiso       1.00
      C122          C  0.0418239  0.4574718  0.5155563    0.00000       Uiso       1.00
      C123          C  0.0325084  0.4673304  0.5117652    0.00000       Uiso       1.00
      C124          C  0.0055416  0.4385129  0.5363011    0.00000       Uiso       1.00
      C125          C  0.9960061  0.4481189  0.5324461    0.00000       Uiso       1.00
      C126          C  0.0095230  0.4626199  0.5201898    0.00000       Uiso       1.00
       H99          H  0.9949305  0.4277969  0.5461303    0.00000       Uiso       1.00
      H100          H  0.0594386  0.4609125  0.5084931    0.00000       Uiso       1.00
      C127          C  0.0282504  0.4425716  0.3575741    0.00000       Uiso       1.00
      C128          C  0.0136926  0.4293404  0.3712442    0.00000       Uiso       1.00
      C129          C  0.0038320  0.4386559  0.3942120    0.00000       Uiso       1.00
      C130          C  0.0326676  0.4656260  0.3678265    0.00000       Uiso       1.00
      C131          C  0.0230625  0.4751618  0.3908234    0.00000       Uiso       1.00
      C132          C  0.0085521  0.4616447  0.4040640    0.00000       Uiso       1.00
      H101          H  0.0433886  0.4762386  0.3578955    0.00000       Uiso       1.00
      H102          H  0.0102493  0.4117233  0.3641258    0.00000       Uiso       1.00
      C133          C  0.8287127  0.4721215  0.5574522    0.00000       Uiso       1.00
      C134          C  0.8389637  0.4637300  0.5343977    0.00000       Uiso       1.00
      C135          C  0.8619623  0.4675872  0.5248595    0.00000       Uiso       1.00
      C136          C  0.8423852  0.4844707  0.5706797    0.00000       Uiso       1.00
      C137          C  0.8653508  0.4882616  0.5613631    0.00000       Uiso       1.00
      C138          C  0.8752019  0.4798415  0.5383777    0.00000       Uiso       1.00
      H103          H  0.8352737  0.4915307  0.5882934    0.00000       Uiso       1.00
      H104          H  0.8290225  0.4539011  0.5237931    0.00000       Uiso       1.00
      C139          C  0.8720431  0.4594414  0.5019553    0.00000       Uiso       1.00
      C140          C  0.8949065  0.4635858  0.4925867    0.00000       Uiso       1.00
      C141          C  0.9731013  0.4434466  0.5405986    0.00000       Uiso       1.00
      C142          C  0.9637328  0.4527992  0.5364573    0.00000       Uiso       1.00
       N33          N  0.9581420  0.4280362  0.5538247    0.00000       Uiso       1.00
      H105          H  0.9423519  0.4265713  0.5583220    0.00000       Uiso       1.00
      H106          H  0.9599902  0.4131107  0.5445873    0.00000       Uiso       1.00
       N34          N  0.9390368  0.4470627  0.5453333    0.00000       Uiso       1.00
      H107          H  0.9348944  0.4550140  0.5410171    0.00000       Uiso       1.00
      H108          H  0.9319363  0.4306581  0.5390238    0.00000       Uiso       1.00
       N35          N  0.9049956  0.4547167  0.4678908    0.00000       Uiso       1.00
      H109          H  0.9214054  0.4590363  0.4637518    0.00000       Uiso       1.00
      H110          H  0.8983045  0.4381478  0.4626173    0.00000       Uiso       1.00
       N36          N  0.8583611  0.4462167  0.4870008    0.00000       Uiso       1.00
      H111          H  0.8681867  0.4417222  0.4712089    0.00000       Uiso       1.00
      H112          H  0.8469102  0.4326353  0.4909585    0.00000       Uiso       1.00
      C143          C  0.9873431  0.5728105  0.5277354    0.00000       Uiso       1.00
      C144          C  0.9953725  0.5628716  0.5327715    0.00000       Uiso       1.00
      C145          C  0.9908181  0.5397665  0.5236147    0.00000       Uiso       1.00
      C146          C  0.9750377  0.5595907  0.5133108    0.00000       Uiso       1.00
      C147          C  0.9708527  0.5365921  0.5040396    0.00000       Uiso       1.00
      C148          C  0.9786454  0.5260242  0.5088105    0.00000       Uiso       1.00
      H113          H  0.0146114  0.5066965  0.4898390    0.00000       Uiso       1.00
      H114          H  0.9998752  0.5212632  0.4673437    0.00000       Uiso       1.00
      C149          C  0.0000303  0.4722984  0.5162044    0.00000       Uiso       1.00
      C150          C  0.0135402  0.4867165  0.5038912    0.00000       Uiso       1.00
      C151          C  0.0039977  0.4959893  0.4997070    0.00000       Uiso       1.00
      C152          C  0.9770258  0.4672709  0.5242438    0.00000       Uiso       1.00
      C153          C  0.9676321  0.4764269  0.5196875    0.00000       Uiso       1.00
      C154          C  0.9808666  0.4912220  0.5075043    0.00000       Uiso       1.00
      H115          H  0.9963470  0.5326852  0.5287253    0.00000       Uiso       1.00
      H116          H  0.9445368  0.5101678  0.5434713    0.00000       Uiso       1.00
      C155          C  0.9988762  0.4711404  0.4272195    0.00000       Uiso       1.00
      C156          C  0.9844488  0.4576300  0.4404400    0.00000       Uiso       1.00
      C157          C  0.9751776  0.4671742  0.4634391    0.00000       Uiso       1.00
      C158          C  0.0039141  0.4941470  0.4371576    0.00000       Uiso       1.00
      C159          C  0.9947601  0.5035423  0.4602635    0.00000       Uiso       1.00
      C160          C  0.9799532  0.4903071  0.4740062    0.00000       Uiso       1.00
      H117          H  0.9384903  0.4748166  0.4787647    0.00000       Uiso       1.00
      H118          H  0.9609922  0.5266321  0.4933257    0.00000       Uiso       1.00
      C161          C  0.8983591  0.4838286  0.5288856    0.00000       Uiso       1.00
      C162          C  0.9082987  0.4757953  0.5058796    0.00000       Uiso       1.00
      C163          C  0.9314060  0.4803524  0.4964862    0.00000       Uiso       1.00
      C164          C  0.9115793  0.4961350  0.5423968    0.00000       Uiso       1.00
      C165          C  0.9345786  0.5003178  0.5328552    0.00000       Uiso       1.00
      C166          C  0.9451479  0.4925273  0.5097229    0.00000       Uiso       1.00
      H119          H  0.9644549  0.4565625  0.4734027    0.00000       Uiso       1.00
      H120          H  0.9499103  0.4713232  0.5252249    0.00000       Uiso       1.00
      C167          C  0.0183952  0.5074399  0.4237655    0.00000       Uiso       1.00
      C168          C  0.0277458  0.4980691  0.4009026    0.00000       Uiso       1.00
      C169          C  0.9798030  0.4347318  0.4304142    0.00000       Uiso       1.00
      C170          C  0.9893912  0.4253730  0.4076087    0.00000       Uiso       1.00
      C171          C  0.0075758  0.5762626  0.5472533    0.00000       Uiso       1.00
      C172          C  0.0117186  0.5991262  0.5566067    0.00000       Uiso       1.00
      C173          C  0.9668127  0.5696176  0.5086636    0.00000       Uiso       1.00
      C174          C  0.9706764  0.5924259  0.5182517    0.00000       Uiso       1.00
      C175          C  0.9015522  0.5043626  0.5652953    0.00000       Uiso       1.00
      C176          C  0.8787454  0.5005021  0.5746497    0.00000       Uiso       1.00
      C177          C  0.0364386  0.4913546  0.4956568    0.00000       Uiso       1.00
      C178          C  0.0457946  0.4817656  0.4995190    0.00000       Uiso       1.00
       N37          N  0.0249331  0.6128094  0.5720280    0.00000       Uiso       1.00
      H121          H  0.0294258  0.6029851  0.5735038    0.00000       Uiso       1.00
      H122          H  0.0385156  0.6242628  0.5659445    0.00000       Uiso       1.00
       N38          N  0.0164400  0.5661775  0.5530009    0.00000       Uiso       1.00
      H123          H  0.0247247  0.5780846  0.5635103    0.00000       Uiso       1.00
      H124          H  0.0038170  0.5550022  0.5601681    0.00000       Uiso       1.00
       N39          N  0.9613940  0.6024346  0.5128831    0.00000       Uiso       1.00
      H125          H  0.9531396  0.5905299  0.5023467    0.00000       Uiso       1.00
      H126          H  0.9510322  0.6096793  0.5268567    0.00000       Uiso       1.00
       N40          N  0.9534631  0.5559200  0.4933674    0.00000       Uiso       1.00
      H127          H  0.9489402  0.5657441  0.4919269    0.00000       Uiso       1.00
      H128          H  0.9626293  0.5483333  0.4784182    0.00000       Uiso       1.00
       N41          N  0.0241429  0.5321368  0.4338506    0.00000       Uiso       1.00
      H129          H  0.0346520  0.5390238  0.4219435    0.00000       Uiso       1.00
      H130          H  0.0102955  0.5360388  0.4413454    0.00000       Uiso       1.00
       N42          N  0.0431666  0.5130268  0.3872247    0.00000       Uiso       1.00
      H131          H  0.0446380  0.5288182  0.3970521    0.00000       Uiso       1.00
      H132          H  0.0580882  0.5111706  0.3796895    0.00000       Uiso       1.00
       N43          N  0.9645066  0.4197870  0.4441153    0.00000       Uiso       1.00
      H133          H  0.9630656  0.4039986  0.4342936    0.00000       Uiso       1.00
      H134          H  0.9706679  0.4237983  0.4555292    0.00000       Uiso       1.00
       N44          N  0.9840211  0.4007130  0.3976075    0.00000       Uiso       1.00
      H135          H  0.9734851  0.3938316  0.4095159    0.00000       Uiso       1.00
      H136          H  0.9770074  0.3947440  0.3862357    0.00000       Uiso       1.00
       N45          N  0.0704535  0.4871267  0.4902236    0.00000       Uiso       1.00
      H137          H  0.0773362  0.4976587  0.4819652    0.00000       Uiso       1.00
      H138          H  0.0764269  0.4941419  0.5026373    0.00000       Uiso       1.00
       N46          N  0.0513825  0.5066414  0.4822972    0.00000       Uiso       1.00
      H139          H  0.0671704  0.5080782  0.4777670    0.00000       Uiso       1.00
      H140          H  0.0473652  0.5004754  0.4687360    0.00000       Uiso       1.00
       N47          N  0.9152531  0.5177096  0.5802400    0.00000       Uiso       1.00
      H141          H  0.9054317  0.5222367  0.5960283    0.00000       Uiso       1.00
      H142          H  0.9228359  0.5085400  0.5784369    0.00000       Uiso       1.00
       N48          N  0.8687410  0.5097900  0.5993093    0.00000       Uiso       1.00
      H143          H  0.8806478  0.5180451  0.6061928    0.00000       Uiso       1.00
      H144          H  0.8614974  0.5201521  0.6029408    0.00000       Uiso       1.00
      C179          C  0.5873157  0.7135260  0.0100538    0.00000       Uiso       1.00
      C180          C  0.5662228  0.7020986  0.0084376    0.00000       Uiso       1.00
      C181          C  0.5565340  0.6791857  0.0049049    0.00000       Uiso       1.00
      C182          C  0.5985973  0.7020986  0.0084376    0.00000       Uiso       1.00
      C183          C  0.5889316  0.6792596  0.0050461    0.00000       Uiso       1.00
      C184          C  0.5676966  0.6672037  0.0030793    0.00000       Uiso       1.00
      H145          H  0.5320684  0.4596272  0.0694789    0.00000       Uiso       1.00
      H146          H  0.6157923  0.7111714  0.0097742    0.00000       Uiso       1.00
      C185          C  0.2865111  0.4127219  0.0584424    0.00000       Uiso       1.00
      C186          C  0.2979385  0.4338147  0.0697240    0.00000       Uiso       1.00
      C187          C  0.3207774  0.4435967  0.0600589    0.00000       Uiso       1.00
      C188          C  0.2979385  0.4014402  0.0373496    0.00000       Uiso       1.00
      C189          C  0.3208515  0.4111317  0.0276610    0.00000       Uiso       1.00
      C190          C  0.3328325  0.4324504  0.0388247    0.00000       Uiso       1.00
      H147          H  0.5404072  0.6707955  0.0032023    0.00000       Uiso       1.00
      H148          H  0.2888656  0.4432733  0.0869189    0.00000       Uiso       1.00
      C191          C  0.5389272  0.4127221  0.0584423    0.00000       Uiso       1.00
      C192          C  0.5373109  0.4014404  0.0373495    0.00000       Uiso       1.00
      C193          C  0.5339165  0.4111044  0.0275686    0.00000       Uiso       1.00
      C194          C  0.5373109  0.4338149  0.0697239    0.00000       Uiso       1.00
      C195          C  0.5337745  0.4435021  0.0600343    0.00000       Uiso       1.00
      C196          C  0.5319464  0.4323374  0.0387157    0.00000       Uiso       1.00
      H149          H  0.5983461  0.4679642  0.8003684    0.00000       Uiso       1.00
      H150          H  0.5386475  0.3842455  0.0278908    0.00000       Uiso       1.00
      C197          C  0.5873156  0.4611108  0.7576379    0.00000       Uiso       1.00
      C198          C  0.5985973  0.4627270  0.7690653    0.00000       Uiso       1.00
      C199          C  0.5889058  0.4662594  0.7919781    0.00000       Uiso       1.00
      C200          C  0.5662228  0.4627270  0.7690653    0.00000       Uiso       1.00
      C201          C  0.5564407  0.4661177  0.7919042    0.00000       Uiso       1.00
      C202          C  0.5675866  0.4680843  0.8039597    0.00000       Uiso       1.00
      H151          H  0.3292404  0.4016906  0.0115345    0.00000       Uiso       1.00
      C203          C  0.5000147  0.5000198  0.9711459    0.00000       Uiso       1.00
      H152          H  0.5567641  0.4613904  0.7599925    0.00000       Uiso       1.00
       N49          N  0.5536942  0.7141161  0.0102080    0.00000       Uiso       1.00
      H153          H  0.5388677  0.7034379  0.0086877    0.00000       Uiso       1.00
      H154          H  0.5515650  0.7261488  0.0249932    0.00000       Uiso       1.00
       N50          N  0.6213731  0.4609566  0.7570478    0.00000       Uiso       1.00
      H155          H  0.6270416  0.4624769  0.7677260    0.00000       Uiso       1.00
      H156          H  0.6207498  0.4461715  0.7450151    0.00000       Uiso       1.00
       N51          N  0.5390813  0.4463435  0.0924996    0.00000       Uiso       1.00
      H157          H  0.5375611  0.4611700  0.0981682    0.00000       Uiso       1.00
      H158          H  0.5270029  0.4377462  0.1026796    0.00000       Uiso       1.00
       N52          N  0.2859209  0.3786645  0.0248209    0.00000       Uiso       1.00
      H159          H  0.2965992  0.3729959  0.0099944    0.00000       Uiso       1.00
      H160          H  0.2792222  0.3684846  0.0334182    0.00000       Uiso       1.00
       N53          N  0.6017133  0.6679157  0.0039418    0.00000       Uiso       1.00
      H161          H  0.5928621  0.6517733  0.0014781    0.00000       Uiso       1.00
      H162          H  0.6161302  0.6695969  0.9913874    0.00000       Uiso       1.00
       N54          N  0.5328066  0.3983211  0.0045494    0.00000       Uiso       1.00
      H163          H  0.5303412  0.4071724  0.9997227    0.00000       Uiso       1.00
      H164          H  0.5470879  0.3953239  0.9941652    0.00000       Uiso       1.00
       N55          N  0.5334195  0.4672224  0.8032478    0.00000       Uiso       1.00
      H165          H  0.5285914  0.4696854  0.8193901    0.00000       Uiso       1.00
      H166          H  0.5332379  0.4797769  0.8015674    0.00000       Uiso       1.00
       N56          N  0.3321210  0.4666174  0.0728417    0.00000       Uiso       1.00
      H167          H  0.3482634  0.4714454  0.0639909    0.00000       Uiso       1.00
      H168          H  0.3252235  0.4769988  0.0758383    0.00000       Uiso       1.00
      C204          C  0.5574584  0.6424576  0.9990419    0.00000       Uiso       1.00
      C205          C  0.5344028  0.6322053  0.0074267    0.00000       Uiso       1.00
      C206          C  0.5248644  0.6092069  0.0035716    0.00000       Uiso       1.00
      C207          C  0.5706864  0.6287855  0.9866988    0.00000       Uiso       1.00
      C208          C  0.5613697  0.6058198  0.9829074    0.00000       Uiso       1.00
      C209          C  0.5383831  0.5959679  0.9913231    0.00000       Uiso       1.00
      H169          H  0.5883007  0.6358961  0.9796425    0.00000       Uiso       1.00
      H170          H  0.5237946  0.6421428  0.0172479    0.00000       Uiso       1.00
      C210          C  0.3575775  0.4429219  0.0285891    0.00000       Uiso       1.00
      C211          C  0.3712497  0.4574713  0.0418176    0.00000       Uiso       1.00
      C212          C  0.3942150  0.4673300  0.0325021    0.00000       Uiso       1.00
      C213          C  0.3678284  0.4385124  0.0055353    0.00000       Uiso       1.00
      C214          C  0.3908255  0.4481188  0.9959989    0.00000       Uiso       1.00
      C215          C  0.4040653  0.4626195  0.0095168    0.00000       Uiso       1.00
      H171          H  0.3578948  0.4277968  0.9949233    0.00000       Uiso       1.00
      H172          H  0.3641390  0.4609120  0.0594323    0.00000       Uiso       1.00
      C216          C  0.5279055  0.4425713  0.0282441    0.00000       Uiso       1.00
      C217          C  0.5155620  0.4293400  0.0136864    0.00000       Uiso       1.00
      C218          C  0.5117702  0.4386556  0.0038258    0.00000       Uiso       1.00
      C219          C  0.5362904  0.4656257  0.0326613    0.00000       Uiso       1.00
      C220          C  0.5324342  0.4751614  0.0230563    0.00000       Uiso       1.00
      C221          C  0.5201870  0.4616444  0.0085459    0.00000       Uiso       1.00
      H173          H  0.5461130  0.4762383  0.0433823    0.00000       Uiso       1.00
      H174          H  0.5085067  0.4117230  0.0102430    0.00000       Uiso       1.00
      C222          C  0.5571153  0.4721215  0.8287057    0.00000       Uiso       1.00
      C223          C  0.5615274  0.4637300  0.8389568    0.00000       Uiso       1.00
      C224          C  0.5519242  0.4675872  0.8619553    0.00000       Uiso       1.00
      C225          C  0.5425646  0.4844707  0.8423782    0.00000       Uiso       1.00
      C226          C  0.5327064  0.4882615  0.8653437    0.00000       Uiso       1.00
      C227          C  0.5374207  0.4798415  0.8751948    0.00000       Uiso       1.00
      H175          H  0.5391223  0.4915307  0.8352668    0.00000       Uiso       1.00
      H176          H  0.5722443  0.4539011  0.8290156    0.00000       Uiso       1.00
      C228          C  0.5566018  0.4594414  0.8720361    0.00000       Uiso       1.00
      C229          C  0.5472514  0.4635858  0.8948994    0.00000       Uiso       1.00
      C230          C  0.4009055  0.4434465  0.9730940    0.00000       Uiso       1.00
      C231          C  0.4237678  0.4527992  0.9637256    0.00000       Uiso       1.00
       N57          N  0.3872282  0.4280361  0.9581348    0.00000       Uiso       1.00
      H177          H  0.3970563  0.4265713  0.9423447    0.00000       Uiso       1.00
      H178          H  0.3796920  0.4131107  0.9599831    0.00000       Uiso       1.00
       N58          N  0.4338513  0.4470627  0.9390296    0.00000       Uiso       1.00
      H179          H  0.4502612  0.4550139  0.9348873    0.00000       Uiso       1.00
      H180          H  0.4308568  0.4306580  0.9319292    0.00000       Uiso       1.00
       N59          N  0.5529892  0.4547167  0.9049885    0.00000       Uiso       1.00
      H181          H  0.5450380  0.4590363  0.9213983    0.00000       Uiso       1.00
      H182          H  0.5483848  0.4381478  0.8982974    0.00000       Uiso       1.00
       N60          N  0.5720137  0.4462168  0.8583540    0.00000       Uiso       1.00
      H183          H  0.5734854  0.4417222  0.8681797    0.00000       Uiso       1.00
      H184          H  0.5659254  0.4326354  0.8469031    0.00000       Uiso       1.00
      C232          C  0.5288909  0.5728105  0.9873360    0.00000       Uiso       1.00
      C233          C  0.5058864  0.5628716  0.9953653    0.00000       Uiso       1.00
      C234          C  0.4964925  0.5397665  0.9908109    0.00000       Uiso       1.00
      C235          C  0.5424011  0.5595907  0.9750305    0.00000       Uiso       1.00
      C236          C  0.5328586  0.5365921  0.9708456    0.00000       Uiso       1.00
      C237          C  0.5097272  0.5260242  0.9786382    0.00000       Uiso       1.00
      H185          H  0.4734044  0.5066961  0.0146052    0.00000       Uiso       1.00
      H186          H  0.5252032  0.5212632  0.9998681    0.00000       Uiso       1.00
      C238          C  0.4272218  0.4722979  0.0000241    0.00000       Uiso       1.00
      C239          C  0.4404434  0.4867161  0.0135339    0.00000       Uiso       1.00
      C240          C  0.4634428  0.4959888  0.0039915    0.00000       Uiso       1.00
      C241          C  0.4371601  0.4672709  0.9770187    0.00000       Uiso       1.00
      C242          C  0.4602661  0.4764268  0.9676248    0.00000       Uiso       1.00
      C243          C  0.4740099  0.4912220  0.9808594    0.00000       Uiso       1.00
      H187          H  0.4787717  0.5326852  0.9963399    0.00000       Uiso       1.00
      H188          H  0.4933184  0.5101677  0.9445297    0.00000       Uiso       1.00
      C244          C  0.5162036  0.4711404  0.9988689    0.00000       Uiso       1.00
      C245          C  0.5039001  0.4576300  0.9844416    0.00000       Uiso       1.00
      C246          C  0.4997165  0.4671742  0.9751703    0.00000       Uiso       1.00
      C247          C  0.5242337  0.4941466  0.0039078    0.00000       Uiso       1.00
      C248          C  0.5196776  0.5035423  0.9947529    0.00000       Uiso       1.00
      C249          C  0.5075064  0.4903071  0.9799461    0.00000       Uiso       1.00
      H189          H  0.5287205  0.4748166  0.9384831    0.00000       Uiso       1.00
      H190          H  0.5434731  0.5266321  0.9609850    0.00000       Uiso       1.00
      C250          C  0.5277426  0.4838286  0.8983520    0.00000       Uiso       1.00
      C251          C  0.5327757  0.4757953  0.9082917    0.00000       Uiso       1.00
      C252          C  0.5236190  0.4803523  0.9313988    0.00000       Uiso       1.00
      C253          C  0.5133176  0.4961350  0.9115722    0.00000       Uiso       1.00
      C254          C  0.5040429  0.5003178  0.9345715    0.00000       Uiso       1.00
      C255          C  0.5088154  0.4925272  0.9451407    0.00000       Uiso       1.00
      H191          H  0.4898638  0.4565625  0.9644478    0.00000       Uiso       1.00
      H192          H  0.4673469  0.4713231  0.9499031    0.00000       Uiso       1.00
      C256          C  0.5364376  0.5074396  0.0183890    0.00000       Uiso       1.00
      C257          C  0.5405791  0.4980687  0.0277395    0.00000       Uiso       1.00
      C258          C  0.4956734  0.4347318  0.9797958    0.00000       Uiso       1.00
      C259          C  0.4995319  0.4253730  0.9893840    0.00000       Uiso       1.00
      C260          C  0.4925919  0.5762622  0.0075695    0.00000       Uiso       1.00
      C261          C  0.5019592  0.5991257  0.0117123    0.00000       Uiso       1.00
      C262          C  0.5653002  0.5696176  0.9668055    0.00000       Uiso       1.00
      C263          C  0.5746567  0.5924259  0.9706692    0.00000       Uiso       1.00
      C264          C  0.5086739  0.5043625  0.9015450    0.00000       Uiso       1.00
      C265          C  0.5182658  0.5005021  0.8787384    0.00000       Uiso       1.00
      C266          C  0.4304174  0.4913541  0.0364323    0.00000       Uiso       1.00
      C267          C  0.4076102  0.4817652  0.0457883    0.00000       Uiso       1.00
       N61          N  0.4870066  0.6128090  0.0249269    0.00000       Uiso       1.00
      H193          H  0.4712138  0.6029847  0.0294196    0.00000       Uiso       1.00
      H194          H  0.4909611  0.6242624  0.0385093    0.00000       Uiso       1.00
       N62          N  0.4678949  0.5661771  0.0164337    0.00000       Uiso       1.00
      H195          H  0.4610080  0.5780842  0.0247184    0.00000       Uiso       1.00
      H196          H  0.4621754  0.5550018  0.0038107    0.00000       Uiso       1.00
       N63          N  0.5993164  0.6024346  0.9613869    0.00000       Uiso       1.00
      H197          H  0.6062025  0.5905299  0.9531325    0.00000       Uiso       1.00
      H198          H  0.6029493  0.6096793  0.9510251    0.00000       Uiso       1.00
       N64          N  0.5802484  0.5559200  0.9534560    0.00000       Uiso       1.00
      H199          H  0.5960360  0.5657442  0.9489329    0.00000       Uiso       1.00
      H200          H  0.5784448  0.5483333  0.9626222    0.00000       Uiso       1.00
       N65          N  0.5453016  0.5321364  0.0241367    0.00000       Uiso       1.00
      H201          H  0.5535868  0.5390234  0.0346457    0.00000       Uiso       1.00
      H202          H  0.5555564  0.5360385  0.0102892    0.00000       Uiso       1.00
       N66          N  0.5537941  0.5130265  0.0431603    0.00000       Uiso       1.00
      H203          H  0.5582865  0.5288179  0.0446317    0.00000       Uiso       1.00
      H204          H  0.5445514  0.5111702  0.0580819    0.00000       Uiso       1.00
       N67          N  0.4823239  0.4197869  0.9644994    0.00000       Uiso       1.00
      H205          H  0.4777983  0.4039986  0.9630584    0.00000       Uiso       1.00
      H206          H  0.4687600  0.4237983  0.9706607    0.00000       Uiso       1.00
       N68          N  0.4902433  0.4007130  0.9840139    0.00000       Uiso       1.00
      H207          H  0.4819895  0.3938316  0.9734779    0.00000       Uiso       1.00
      H208          H  0.5026597  0.3947440  0.9770002    0.00000       Uiso       1.00
       N69          N  0.3976078  0.4871263  0.0704472    0.00000       Uiso       1.00
      H209          H  0.4095156  0.4976583  0.0773299    0.00000       Uiso       1.00
      H210          H  0.3862361  0.4941415  0.0764205    0.00000       Uiso       1.00
       N70          N  0.4441200  0.5066410  0.0513762    0.00000       Uiso       1.00
      H211          H  0.4342991  0.5080777  0.0671640    0.00000       Uiso       1.00
      H212          H  0.4555326  0.5004750  0.0473589    0.00000       Uiso       1.00
       N71          N  0.4933752  0.5177095  0.9152460    0.00000       Uiso       1.00
      H213          H  0.4919353  0.5222366  0.9054247    0.00000       Uiso       1.00
      H214          H  0.4784260  0.5085400  0.9228288    0.00000       Uiso       1.00
       N72          N  0.5128984  0.5097899  0.8687340    0.00000       Uiso       1.00
      H215          H  0.5023632  0.5180451  0.8806407    0.00000       Uiso       1.00
      H216          H  0.5268726  0.5201521  0.8614904    0.00000       Uiso       1.00
      C268          C  0.5873156  0.8838549  0.0100539    0.00000       Uiso       1.00
      C269          C  0.5985973  0.9049476  0.0084376    0.00000       Uiso       1.00
      C270          C  0.5889059  0.9146364  0.0049049    0.00000       Uiso       1.00
      C271          C  0.5662228  0.8725732  0.0084376    0.00000       Uiso       1.00
      C272          C  0.5564410  0.8822389  0.0050461    0.00000       Uiso       1.00
      C273          C  0.5675869  0.9034739  0.0030793    0.00000       Uiso       1.00
      H217          H  0.3292387  0.9391021  0.0694789    0.00000       Uiso       1.00
      H218          H  0.5567641  0.8553783  0.0097742    0.00000       Uiso       1.00
      C274          C  0.5389273  0.1846596  0.0584423    0.00000       Uiso       1.00
      C275          C  0.5373110  0.1732322  0.0697240    0.00000       Uiso       1.00
      C276          C  0.5339193  0.1503934  0.0600588    0.00000       Uiso       1.00
      C277          C  0.5373110  0.1732322  0.0373495    0.00000       Uiso       1.00
      C278          C  0.5337781  0.1503193  0.0276609    0.00000       Uiso       1.00
      C279          C  0.5319520  0.1383382  0.0388246    0.00000       Uiso       1.00
      H219          H  0.5983451  0.9307632  0.0032023    0.00000       Uiso       1.00
      H220          H  0.5386476  0.1823051  0.0869189    0.00000       Uiso       1.00
      C280          C  0.2865113  0.9322432  0.0584422    0.00000       Uiso       1.00
      C281          C  0.2979387  0.9338595  0.0373494    0.00000       Uiso       1.00
      C282          C  0.3207780  0.9372538  0.0275685    0.00000       Uiso       1.00
      C283          C  0.2979388  0.9338595  0.0697239    0.00000       Uiso       1.00
      C284          C  0.3208520  0.9373959  0.0600342    0.00000       Uiso       1.00
      C285          C  0.3328341  0.9392241  0.0387157    0.00000       Uiso       1.00
      H221          H  0.5404081  0.8728247  0.8003684    0.00000       Uiso       1.00
      H222          H  0.2888659  0.9325229  0.0278907    0.00000       Uiso       1.00
      C286          C  0.5873156  0.8838552  0.7576379    0.00000       Uiso       1.00
      C287          C  0.5662228  0.8725736  0.7690653    0.00000       Uiso       1.00
      C288          C  0.5565338  0.8822650  0.7919781    0.00000       Uiso       1.00
      C289          C  0.5985973  0.9049480  0.7690653    0.00000       Uiso       1.00
      C290          C  0.5889313  0.9147302  0.7919041    0.00000       Uiso       1.00
      C291          C  0.5676963  0.9035842  0.8039596    0.00000       Uiso       1.00
      H223          H  0.5320746  0.1419303  0.0115345    0.00000       Uiso       1.00
      C292          C  0.5000175  0.9711561  0.9711458    0.00000       Uiso       1.00
      H224          H  0.6157922  0.9144067  0.7599924    0.00000       Uiso       1.00
       N73          N  0.6213731  0.9174763  0.0102080    0.00000       Uiso       1.00
      H225          H  0.6270416  0.9323028  0.0086877    0.00000       Uiso       1.00
      H226          H  0.6207498  0.9196055  0.0249932    0.00000       Uiso       1.00
       N74          N  0.5536941  0.8497978  0.7570478    0.00000       Uiso       1.00
      H227          H  0.5388677  0.8441293  0.7677259    0.00000       Uiso       1.00
      H228          H  0.5515650  0.8504211  0.7450150    0.00000       Uiso       1.00
       N75          N  0.2859212  0.9320890  0.0924996    0.00000       Uiso       1.00
      H229          H  0.2965994  0.9336093  0.0981681    0.00000       Uiso       1.00
      H230          H  0.2792224  0.9441676  0.1026795    0.00000       Uiso       1.00
       N76          N  0.5390814  0.1852497  0.0248209    0.00000       Uiso       1.00
      H231          H  0.5375611  0.1745715  0.0099944    0.00000       Uiso       1.00
      H232          H  0.5270029  0.1919485  0.0334182    0.00000       Uiso       1.00
       N77          N  0.5334197  0.8694572  0.0039418    0.00000       Uiso       1.00
      H233          H  0.5285922  0.8783084  0.0014781    0.00000       Uiso       1.00
      H234          H  0.5332376  0.8550407  0.9913874    0.00000       Uiso       1.00
       N78          N  0.3321239  0.9383639  0.0045494    0.00000       Uiso       1.00
      H235          H  0.3482665  0.9408295  0.9997226    0.00000       Uiso       1.00
      H236          H  0.3252287  0.9240829  0.9941652    0.00000       Uiso       1.00
       N79          N  0.6017135  0.9377514  0.8032477    0.00000       Uiso       1.00
      H237          H  0.5928622  0.9425794  0.8193901    0.00000       Uiso       1.00
      H238          H  0.6161299  0.9379328  0.8015674    0.00000       Uiso       1.00
       N80          N  0.5328137  0.1390498  0.0728416    0.00000       Uiso       1.00
      H239          H  0.5303499  0.1229073  0.0639908    0.00000       Uiso       1.00
      H240          H  0.5470958  0.1459472  0.0758383    0.00000       Uiso       1.00
      C293          C  0.5571156  0.9137124  0.9990419    0.00000       Uiso       1.00
      C294          C  0.5615349  0.9367676  0.0074267    0.00000       Uiso       1.00
      C295          C  0.5519298  0.9463060  0.0035716    0.00000       Uiso       1.00
      C296          C  0.5425586  0.9004844  0.9866988    0.00000       Uiso       1.00
      C297          C  0.5327010  0.9098012  0.9829074    0.00000       Uiso       1.00
      C298          C  0.5374200  0.9327877  0.9913231    0.00000       Uiso       1.00
      H241          H  0.5391112  0.8828701  0.9796425    0.00000       Uiso       1.00
      H242          H  0.5722593  0.9473758  0.0172479    0.00000       Uiso       1.00
      C299          C  0.5279142  0.1135933  0.0285890    0.00000       Uiso       1.00
      C300          C  0.5155629  0.0999211  0.0418175    0.00000       Uiso       1.00
      C301          C  0.5117719  0.0769558  0.0325020    0.00000       Uiso       1.00
      C302          C  0.5363076  0.1033424  0.0055353    0.00000       Uiso       1.00
      C303          C  0.5324528  0.0803458  0.9959988    0.00000       Uiso       1.00
      C304          C  0.5201964  0.0671056  0.0095167    0.00000       Uiso       1.00
      H243          H  0.5461369  0.1132764  0.9949232    0.00000       Uiso       1.00
      H244          H  0.5084996  0.1070318  0.0594322    0.00000       Uiso       1.00
      C305          C  0.3575804  0.9432648  0.0282440    0.00000       Uiso       1.00
      C306          C  0.3712505  0.9556084  0.0136863    0.00000       Uiso       1.00
      C307          C  0.3942183  0.9594001  0.0038257    0.00000       Uiso       1.00
      C308          C  0.3678328  0.9348800  0.0326612    0.00000       Uiso       1.00
      C309          C  0.3908297  0.9387362  0.0230562    0.00000       Uiso       1.00
      C310          C  0.4040703  0.9509834  0.0085458    0.00000       Uiso       1.00
      H245          H  0.3579018  0.9250575  0.0433822    0.00000       Uiso       1.00
      H246          H  0.3641320  0.9626638  0.0102429    0.00000       Uiso       1.00
      C311          C  0.5574588  0.9140555  0.8287057    0.00000       Uiso       1.00
      C312          C  0.5344042  0.9096435  0.8389567    0.00000       Uiso       1.00
      C313          C  0.5248660  0.9192466  0.8619552    0.00000       Uiso       1.00
      C314          C  0.5706862  0.9286062  0.8423781    0.00000       Uiso       1.00
      C315          C  0.5613696  0.9384644  0.8653437    0.00000       Uiso       1.00
      C316          C  0.5383842  0.9337501  0.8751948    0.00000       Uiso       1.00
      H247          H  0.5883000  0.9320485  0.8352667    0.00000       Uiso       1.00
      H248          H  0.5237996  0.8989266  0.8290156    0.00000       Uiso       1.00
      C317          C  0.5019618  0.9145690  0.8720360    0.00000       Uiso       1.00
      C318          C  0.4925931  0.9239194  0.8948994    0.00000       Uiso       1.00
      C319          C  0.5406052  0.0702657  0.9730940    0.00000       Uiso       1.00
      C320          C  0.5364639  0.0474034  0.9637255    0.00000       Uiso       1.00
       N81          N  0.5538313  0.0839430  0.9581348    0.00000       Uiso       1.00
      H249          H  0.5583286  0.0741149  0.9423447    0.00000       Uiso       1.00
      H250          H  0.5445939  0.0914792  0.9599830    0.00000       Uiso       1.00
       N82          N  0.5453399  0.0373200  0.9390296    0.00000       Uiso       1.00
      H251          H  0.5410237  0.0209101  0.9348873    0.00000       Uiso       1.00
      H252          H  0.5390304  0.0403145  0.9319291    0.00000       Uiso       1.00
       N83          N  0.4678973  0.9181816  0.9049884    0.00000       Uiso       1.00
      H253          H  0.4637582  0.9261329  0.9213982    0.00000       Uiso       1.00
      H254          H  0.4626238  0.9227860  0.8982974    0.00000       Uiso       1.00
       N84          N  0.4870072  0.8991571  0.8583540    0.00000       Uiso       1.00
      H255          H  0.4712154  0.8976855  0.8681796    0.00000       Uiso       1.00
      H256          H  0.4909650  0.9052454  0.8469031    0.00000       Uiso       1.00
      C321          C  0.5277418  0.9422799  0.9873360    0.00000       Uiso       1.00
      C322          C  0.5327780  0.9652844  0.9953653    0.00000       Uiso       1.00
      C323          C  0.5236212  0.9746782  0.9908109    0.00000       Uiso       1.00
      C324          C  0.5133173  0.9287697  0.9750305    0.00000       Uiso       1.00
      C325          C  0.5040461  0.9383122  0.9708456    0.00000       Uiso       1.00
      C326          C  0.5088170  0.9614435  0.9786382    0.00000       Uiso       1.00
      H257          H  0.4898455  0.9977660  0.0146051    0.00000       Uiso       1.00
      H258          H  0.4673502  0.9459676  0.9998680    0.00000       Uiso       1.00
      C327          C  0.5162110  0.0439491  0.0000240    0.00000       Uiso       1.00
      C328          C  0.5038977  0.0307275  0.0135339    0.00000       Uiso       1.00
      C329          C  0.4997136  0.0077281  0.0039914    0.00000       Uiso       1.00
      C330          C  0.5242504  0.0340111  0.9770186    0.00000       Uiso       1.00
      C331          C  0.5196941  0.0109052  0.9676248    0.00000       Uiso       1.00
      C332          C  0.5075108  0.9971608  0.9808593    0.00000       Uiso       1.00
      H259          H  0.5287318  0.9923990  0.9963398    0.00000       Uiso       1.00
      H260          H  0.5434778  0.9778523  0.9445297    0.00000       Uiso       1.00
      C333          C  0.4272259  0.9549671  0.9988689    0.00000       Uiso       1.00
      C334          C  0.4404464  0.9672707  0.9844416    0.00000       Uiso       1.00
      C335          C  0.4634455  0.9714543  0.9751703    0.00000       Uiso       1.00
      C336          C  0.4371640  0.9469367  0.0039078    0.00000       Uiso       1.00
      C337          C  0.4602700  0.9514931  0.9947528    0.00000       Uiso       1.00
      C338          C  0.4740126  0.9636643  0.9799461    0.00000       Uiso       1.00
      H261          H  0.4787712  0.9424503  0.9384831    0.00000       Uiso       1.00
      H262          H  0.4933322  0.9276977  0.9609850    0.00000       Uiso       1.00
      C339          C  0.5288921  0.9434282  0.8983520    0.00000       Uiso       1.00
      C340          C  0.5058861  0.9383951  0.9082916    0.00000       Uiso       1.00
      C341          C  0.4964927  0.9475518  0.9313987    0.00000       Uiso       1.00
      C342          C  0.5424033  0.9578531  0.9115722    0.00000       Uiso       1.00
      C343          C  0.5328616  0.9671279  0.9345715    0.00000       Uiso       1.00
      C344          C  0.5097294  0.9623554  0.9451406    0.00000       Uiso       1.00
      H263          H  0.4734091  0.9813070  0.9644477    0.00000       Uiso       1.00
      H264          H  0.5252314  0.0038245  0.9499031    0.00000       Uiso       1.00
      C345          C  0.4237719  0.9347329  0.0183889    0.00000       Uiso       1.00
      C346          C  0.4009090  0.9305913  0.0277395    0.00000       Uiso       1.00
      C347          C  0.4304206  0.9754974  0.9797958    0.00000       Uiso       1.00
      C348          C  0.4076151  0.9716389  0.9893839    0.00000       Uiso       1.00
      C349          C  0.5472597  0.9785785  0.0075695    0.00000       Uiso       1.00
      C350          C  0.5566131  0.9692112  0.0117123    0.00000       Uiso       1.00
      C351          C  0.5086702  0.9058707  0.9668055    0.00000       Uiso       1.00
      C352          C  0.5182582  0.8965141  0.9706692    0.00000       Uiso       1.00
      C353          C  0.5653018  0.9624968  0.9015450    0.00000       Uiso       1.00
      C354          C  0.5746562  0.9529050  0.8787384    0.00000       Uiso       1.00
      C355          C  0.4956634  0.0407535  0.0364322    0.00000       Uiso       1.00
      C356          C  0.4995256  0.0635606  0.0457882    0.00000       Uiso       1.00
       N85          N  0.5720345  0.9841638  0.0249269    0.00000       Uiso       1.00
      H265          H  0.5735103  0.9999566  0.0294195    0.00000       Uiso       1.00
      H266          H  0.5659510  0.9802093  0.0385093    0.00000       Uiso       1.00
       N86          N  0.5530075  0.0032760  0.0164337    0.00000       Uiso       1.00
      H267          H  0.5635169  0.0101630  0.0247184    0.00000       Uiso       1.00
      H268          H  0.5601748  0.0089955  0.0038107    0.00000       Uiso       1.00
       N87          N  0.5128897  0.8718545  0.9613868    0.00000       Uiso       1.00
      H269          H  0.5023532  0.8649684  0.9531325    0.00000       Uiso       1.00
      H270          H  0.5268632  0.8682216  0.9510251    0.00000       Uiso       1.00
       N88          N  0.4933739  0.8909224  0.9534559    0.00000       Uiso       1.00
      H271          H  0.4919334  0.8751349  0.9489329    0.00000       Uiso       1.00
      H272          H  0.4784247  0.8927261  0.9626220    0.00000       Uiso       1.00
       N89          N  0.4338570  0.9258688  0.0241366    0.00000       Uiso       1.00
      H273          H  0.4219498  0.9175837  0.0346457    0.00000       Uiso       1.00
      H274          H  0.4413518  0.9156141  0.0102892    0.00000       Uiso       1.00
       N90          N  0.3872310  0.9173763  0.0431602    0.00000       Uiso       1.00
      H275          H  0.3970584  0.9128839  0.0446317    0.00000       Uiso       1.00
      H276          H  0.3796958  0.9266191  0.0580818    0.00000       Uiso       1.00
       N91          N  0.4441217  0.9888468  0.9644994    0.00000       Uiso       1.00
      H277          H  0.4343000  0.9933724  0.9630584    0.00000       Uiso       1.00
      H278          H  0.4555358  0.0024113  0.9706606    0.00000       Uiso       1.00
       N92          N  0.3976139  0.9809275  0.9840138    0.00000       Uiso       1.00
      H279          H  0.4095222  0.9891812  0.9734778    0.00000       Uiso       1.00
      H280          H  0.3862420  0.9685110  0.9770001    0.00000       Uiso       1.00
       N93          N  0.4902301  0.0735630  0.0704471    0.00000       Uiso       1.00
      H281          H  0.4819717  0.0616552  0.0773299    0.00000       Uiso       1.00
      H282          H  0.5026438  0.0849347  0.0764205    0.00000       Uiso       1.00
       N94          N  0.4823037  0.0270508  0.0513762    0.00000       Uiso       1.00
      H283          H  0.4777735  0.0368718  0.0671640    0.00000       Uiso       1.00
      H284          H  0.4687425  0.0156384  0.0473589    0.00000       Uiso       1.00
       N95          N  0.5802466  0.9777956  0.9152460    0.00000       Uiso       1.00
      H285          H  0.5960349  0.9792354  0.9054247    0.00000       Uiso       1.00
      H286          H  0.5784434  0.9927447  0.9228288    0.00000       Uiso       1.00
       N96          N  0.5993159  0.9582723  0.8687339    0.00000       Uiso       1.00
      H287          H  0.6061994  0.9688076  0.8806407    0.00000       Uiso       1.00
      H288          H  0.6029474  0.9442981  0.8614904    0.00000       Uiso       1.00
      C357          C  0.0100601  0.8838553  0.5873090    0.00000       Uiso       1.00
      C358          C  0.0084438  0.8725736  0.5662162    0.00000       Uiso       1.00
      C359          C  0.0049112  0.8822650  0.5565274    0.00000       Uiso       1.00
      C360          C  0.0084438  0.9049481  0.5985907    0.00000       Uiso       1.00
      C361          C  0.0050523  0.9147298  0.5889250    0.00000       Uiso       1.00
      C362          C  0.0030855  0.9035839  0.5676900    0.00000       Uiso       1.00
      H289          H  0.0694853  0.1419325  0.5320618    0.00000       Uiso       1.00
      H290          H  0.0097805  0.9144068  0.6157856    0.00000       Uiso       1.00
      C363          C  0.0584486  0.9322436  0.2865048    0.00000       Uiso       1.00
      C364          C  0.0697303  0.9338599  0.2979322    0.00000       Uiso       1.00
      C365          C  0.0600651  0.9372516  0.3207710    0.00000       Uiso       1.00
      C366          C  0.0373558  0.9338599  0.2979322    0.00000       Uiso       1.00
      C367          C  0.0276672  0.9373927  0.3208451    0.00000       Uiso       1.00
      C368          C  0.0388309  0.9392188  0.3328262    0.00000       Uiso       1.00
      H291          H  0.0032085  0.8728258  0.5404006    0.00000       Uiso       1.00
      H292          H  0.0869252  0.9325233  0.2888594    0.00000       Uiso       1.00
      C369          C  0.0584486  0.1846597  0.5389206    0.00000       Uiso       1.00
      C370          C  0.0373557  0.1732323  0.5373042    0.00000       Uiso       1.00
      C371          C  0.0275749  0.1503931  0.5339099    0.00000       Uiso       1.00
      C372          C  0.0697303  0.1732323  0.5373042    0.00000       Uiso       1.00
      C373          C  0.0600406  0.1503190  0.5337679    0.00000       Uiso       1.00
      C374          C  0.0387220  0.1383370  0.5319397    0.00000       Uiso       1.00
      H293          H  0.8003753  0.9307626  0.5983394    0.00000       Uiso       1.00
      H294          H  0.0278970  0.1823051  0.5386409    0.00000       Uiso       1.00
      C375          C  0.7576448  0.8838552  0.5873089    0.00000       Uiso       1.00
      C376          C  0.7690722  0.9049480  0.5985906    0.00000       Uiso       1.00
      C377          C  0.7919850  0.9146370  0.5888991    0.00000       Uiso       1.00
      C378          C  0.7690722  0.8725736  0.5662162    0.00000       Uiso       1.00
      C379          C  0.7919110  0.8822395  0.5564340    0.00000       Uiso       1.00
      C380          C  0.8039666  0.9034745  0.5675799    0.00000       Uiso       1.00
      H295          H  0.0115407  0.9390963  0.3292341    0.00000       Uiso       1.00
      C381          C  0.9711530  0.9711532  0.5000081    0.00000       Uiso       1.00
      H296          H  0.7599993  0.8553786  0.5567575    0.00000       Uiso       1.00
       N97          N  0.0102143  0.8497979  0.5536876    0.00000       Uiso       1.00
      H297          H  0.0086940  0.8441293  0.5388611    0.00000       Uiso       1.00
      H298          H  0.0249994  0.8504212  0.5515584    0.00000       Uiso       1.00
       N98          N  0.7570546  0.9174766  0.6213663    0.00000       Uiso       1.00
      H299          H  0.7677329  0.9323032  0.6270349    0.00000       Uiso       1.00
      H300          H  0.7450219  0.9196058  0.6207430    0.00000       Uiso       1.00
       N99          N  0.0925060  0.1852499  0.5390747    0.00000       Uiso       1.00
      H301          H  0.0981745  0.1745716  0.5375544    0.00000       Uiso       1.00
      H302          H  0.1026860  0.1919486  0.5269962    0.00000       Uiso       1.00
      N100          N  0.0248272  0.9320894  0.2859147    0.00000       Uiso       1.00
      H303          H  0.0100006  0.9336097  0.2965929    0.00000       Uiso       1.00
      H304          H  0.0334245  0.9441680  0.2792160    0.00000       Uiso       1.00
      N101          N  0.0039480  0.9377511  0.6017066    0.00000       Uiso       1.00
      H305          H  0.0014843  0.9425787  0.5928555    0.00000       Uiso       1.00
      H306          H  0.9913946  0.9379333  0.6161236    0.00000       Uiso       1.00
      N102          N  0.0045557  0.1390472  0.5327999    0.00000       Uiso       1.00
      H307          H  0.9997299  0.1229046  0.5303345    0.00000       Uiso       1.00
      H308          H  0.9941725  0.1459424  0.5470813    0.00000       Uiso       1.00
      N103          N  0.8032547  0.8694574  0.5334129    0.00000       Uiso       1.00
      H309          H  0.8193970  0.8783086  0.5285848    0.00000       Uiso       1.00
      H310          H  0.8015743  0.8550409  0.5332313    0.00000       Uiso       1.00
      N104          N  0.0728479  0.9383572  0.3321146    0.00000       Uiso       1.00
      H311          H  0.0639971  0.9408209  0.3482571    0.00000       Uiso       1.00
      H312          H  0.0758446  0.9240751  0.3252172    0.00000       Uiso       1.00
      C382          C  0.9990489  0.9140552  0.5574519    0.00000       Uiso       1.00
      C383          C  0.0074329  0.9096360  0.5343963    0.00000       Uiso       1.00
      C384          C  0.0035778  0.9192410  0.5248579    0.00000       Uiso       1.00
      C385          C  0.9867060  0.9286122  0.5706798    0.00000       Uiso       1.00
      C386          C  0.9829146  0.9384698  0.5613630    0.00000       Uiso       1.00
      C387          C  0.9913302  0.9337508  0.5383766    0.00000       Uiso       1.00
      H313          H  0.9796496  0.9320596  0.5882941    0.00000       Uiso       1.00
      H314          H  0.0172542  0.8989115  0.5237880    0.00000       Uiso       1.00
      C388          C  0.0285953  0.9432567  0.3575712    0.00000       Uiso       1.00
      C389          C  0.0418238  0.9556079  0.3712433    0.00000       Uiso       1.00
      C390          C  0.0325083  0.9593990  0.3942086    0.00000       Uiso       1.00
      C391          C  0.0055415  0.9348632  0.3678220    0.00000       Uiso       1.00
      C392          C  0.9960060  0.9387181  0.3908190    0.00000       Uiso       1.00
      C393          C  0.0095230  0.9509744  0.4040588    0.00000       Uiso       1.00
      H315          H  0.9949304  0.9250339  0.3578884    0.00000       Uiso       1.00
      H316          H  0.0594385  0.9626712  0.3641326    0.00000       Uiso       1.00
      C394          C  0.0282504  0.1135907  0.5278989    0.00000       Uiso       1.00
      C395          C  0.0136927  0.0999207  0.5155554    0.00000       Uiso       1.00
      C396          C  0.0038321  0.0769528  0.5117636    0.00000       Uiso       1.00
      C397          C  0.0326676  0.1033383  0.5362837    0.00000       Uiso       1.00
      C398          C  0.0230626  0.0803414  0.5324277    0.00000       Uiso       1.00
      C399          C  0.0085522  0.0671009  0.5201804    0.00000       Uiso       1.00
      H317          H  0.0433886  0.1132694  0.5461064    0.00000       Uiso       1.00
      H318          H  0.0102493  0.1070391  0.5085000    0.00000       Uiso       1.00
      C400          C  0.8287126  0.9137120  0.5571087    0.00000       Uiso       1.00
      C401          C  0.8389637  0.9367666  0.5615207    0.00000       Uiso       1.00
      C402          C  0.8619622  0.9463047  0.5519176    0.00000       Uiso       1.00
      C403          C  0.8423852  0.9004846  0.5425580    0.00000       Uiso       1.00
      C404          C  0.8653508  0.9098012  0.5326998    0.00000       Uiso       1.00
      C405          C  0.8752018  0.9327865  0.5374141    0.00000       Uiso       1.00
      H319          H  0.8352737  0.8828709  0.5391157    0.00000       Uiso       1.00
      H320          H  0.8290225  0.9473712  0.5722376    0.00000       Uiso       1.00
      C406          C  0.8720431  0.9692090  0.5565951    0.00000       Uiso       1.00
      C407          C  0.8949064  0.9785776  0.5472448    0.00000       Uiso       1.00
      C408          C  0.9731012  0.9305657  0.4008991    0.00000       Uiso       1.00
      C409          C  0.9637327  0.9347069  0.4237614    0.00000       Uiso       1.00
      N105          N  0.9581420  0.9173396  0.3872218    0.00000       Uiso       1.00
      H321          H  0.9423517  0.9128423  0.3970498    0.00000       Uiso       1.00
      H322          H  0.9599902  0.9265770  0.3796855    0.00000       Uiso       1.00
      N106          N  0.9390367  0.9258309  0.4338448    0.00000       Uiso       1.00
      H323          H  0.9348944  0.9301472  0.4502546    0.00000       Uiso       1.00
      H324          H  0.9319362  0.9321405  0.4308503    0.00000       Uiso       1.00
      N107          N  0.9049956  0.0032740  0.5529826    0.00000       Uiso       1.00
      H325          H  0.9214054  0.0074130  0.5450313    0.00000       Uiso       1.00
      H326          H  0.8983046  0.0085475  0.5483781    0.00000       Uiso       1.00
      N108          N  0.8583609  0.9841635  0.5720071    0.00000       Uiso       1.00
      H327          H  0.8681867  0.9999553  0.5734787    0.00000       Uiso       1.00
      H328          H  0.8469101  0.9802057  0.5659187    0.00000       Uiso       1.00
      C410          C  0.9873431  0.9434290  0.5288844    0.00000       Uiso       1.00
      C411          C  0.9953725  0.9383927  0.5058798    0.00000       Uiso       1.00
      C412          C  0.9908180  0.9475495  0.4964860    0.00000       Uiso       1.00
      C413          C  0.9750376  0.9578534  0.5423945    0.00000       Uiso       1.00
      C414          C  0.9708527  0.9671246  0.5328519    0.00000       Uiso       1.00
      C415          C  0.9786453  0.9623538  0.5097207    0.00000       Uiso       1.00
      H329          H  0.0146114  0.9813252  0.4733979    0.00000       Uiso       1.00
      H330          H  0.9998752  0.0038211  0.5251966    0.00000       Uiso       1.00
      C416          C  0.0000302  0.9549598  0.4272153    0.00000       Uiso       1.00
      C417          C  0.0135401  0.9672731  0.4404369    0.00000       Uiso       1.00
      C418          C  0.0039977  0.9714572  0.4634363    0.00000       Uiso       1.00
      C419          C  0.9770257  0.9469205  0.4371536    0.00000       Uiso       1.00
      C420          C  0.9676320  0.9514767  0.4602596    0.00000       Uiso       1.00
      C421          C  0.9808665  0.9636599  0.4740034    0.00000       Uiso       1.00
      H331          H  0.9963470  0.9424389  0.4787652    0.00000       Uiso       1.00
      H332          H  0.9445368  0.9276929  0.4933118    0.00000       Uiso       1.00
      C422          C  0.9988762  0.0439453  0.5161971    0.00000       Uiso       1.00
      C423          C  0.9844489  0.0307248  0.5038934    0.00000       Uiso       1.00
      C424          C  0.9751776  0.0077257  0.4997099    0.00000       Uiso       1.00
      C425          C  0.0039141  0.0340073  0.5242271    0.00000       Uiso       1.00
      C426          C  0.9947602  0.0109014  0.5196710    0.00000       Uiso       1.00
      C427          C  0.9799532  0.9971580  0.5074999    0.00000       Uiso       1.00
      H333          H  0.9384903  0.9923995  0.5287139    0.00000       Uiso       1.00
      H334          H  0.9609921  0.9778385  0.5434665    0.00000       Uiso       1.00
      C428          C  0.8983591  0.9422786  0.5277360    0.00000       Uiso       1.00
      C429          C  0.9082988  0.9652846  0.5327691    0.00000       Uiso       1.00
      C430          C  0.9314058  0.9746780  0.5236124    0.00000       Uiso       1.00
      C431          C  0.9115793  0.9287674  0.5133110    0.00000       Uiso       1.00
      C432          C  0.9345786  0.9383091  0.5040362    0.00000       Uiso       1.00
      C433          C  0.9451478  0.9614413  0.5088089    0.00000       Uiso       1.00
      H335          H  0.9644549  0.9977615  0.4898572    0.00000       Uiso       1.00
      H336          H  0.9499102  0.9459394  0.4673403    0.00000       Uiso       1.00
      C434          C  0.0183953  0.0473994  0.5364310    0.00000       Uiso       1.00
      C435          C  0.0277459  0.0702622  0.5405725    0.00000       Uiso       1.00
      C436          C  0.9798030  0.0407506  0.4956668    0.00000       Uiso       1.00
      C437          C  0.9893913  0.0635561  0.4995253    0.00000       Uiso       1.00
      C438          C  0.0075758  0.9239110  0.4925853    0.00000       Uiso       1.00
      C439          C  0.0117186  0.9145577  0.5019527    0.00000       Uiso       1.00
      C440          C  0.9668126  0.9625006  0.5652936    0.00000       Uiso       1.00
      C441          C  0.9706764  0.9529126  0.5746501    0.00000       Uiso       1.00
      C442          C  0.9015521  0.9058690  0.5086673    0.00000       Uiso       1.00
      C443          C  0.8787454  0.8965146  0.5182592    0.00000       Uiso       1.00
      C444          C  0.0364385  0.9755074  0.4304109    0.00000       Uiso       1.00
      C445          C  0.0457945  0.9716452  0.4076038    0.00000       Uiso       1.00
      N109          N  0.0249331  0.8991363  0.4870001    0.00000       Uiso       1.00
      H337          H  0.0294258  0.8976605  0.4712073    0.00000       Uiso       1.00
      H338          H  0.0385155  0.9052198  0.4909546    0.00000       Uiso       1.00
      N110          N  0.0164399  0.9181634  0.4678884    0.00000       Uiso       1.00
      H339          H  0.0247246  0.9076540  0.4610015    0.00000       Uiso       1.00
      H340          H  0.0038169  0.9109962  0.4621689    0.00000       Uiso       1.00
      N111          N  0.9613940  0.9582811  0.5993097    0.00000       Uiso       1.00
      H341          H  0.9531395  0.9688175  0.6061958    0.00000       Uiso       1.00
      H342          H  0.9510322  0.9443076  0.6029426    0.00000       Uiso       1.00
      N112          N  0.9534631  0.9777969  0.5802417    0.00000       Uiso       1.00
      H343          H  0.9489401  0.9792373  0.5960293    0.00000       Uiso       1.00
      H344          H  0.9626293  0.9927461  0.5784382    0.00000       Uiso       1.00
      N113          N  0.0241430  0.0373142  0.5452949    0.00000       Uiso       1.00
      H345          H  0.0346521  0.0492214  0.5535801    0.00000       Uiso       1.00
      H346          H  0.0102955  0.0298195  0.5555497    0.00000       Uiso       1.00
      N114          N  0.0431666  0.0839402  0.5537874    0.00000       Uiso       1.00
      H347          H  0.0446381  0.0741128  0.5582799    0.00000       Uiso       1.00
      H348          H  0.0580882  0.0914754  0.5445448    0.00000       Uiso       1.00
      N115          N  0.9645066  0.0270496  0.4823173    0.00000       Uiso       1.00
      H349          H  0.9630656  0.0368712  0.4777917    0.00000       Uiso       1.00
      H350          H  0.9706679  0.0156356  0.4687535    0.00000       Uiso       1.00
      N116          N  0.9840211  0.0735573  0.4902367    0.00000       Uiso       1.00
      H351          H  0.9734851  0.0616490  0.4819829    0.00000       Uiso       1.00
      H352          H  0.9770074  0.0849291  0.5026532    0.00000       Uiso       1.00
      N117          N  0.0704535  0.9809406  0.3976014    0.00000       Uiso       1.00
      H353          H  0.0773362  0.9891990  0.4095092    0.00000       Uiso       1.00
      H354          H  0.0764268  0.9685270  0.3862297    0.00000       Uiso       1.00
      N118          N  0.0513825  0.9888671  0.4441136    0.00000       Uiso       1.00
      H355          H  0.0671703  0.9933974  0.4342926    0.00000       Uiso       1.00
      H356          H  0.0473652  0.0024289  0.4555261    0.00000       Uiso       1.00
      N119          N  0.9152530  0.8909242  0.4933686    0.00000       Uiso       1.00
      H357          H  0.9054317  0.8751360  0.4919288    0.00000       Uiso       1.00
      H358          H  0.9228358  0.8927274  0.4784195    0.00000       Uiso       1.00
      N120          N  0.8687410  0.8718550  0.5128919    0.00000       Uiso       1.00
      H359          H  0.8806478  0.8649715  0.5023566    0.00000       Uiso       1.00
      H360          H  0.8614973  0.8682234  0.5268660    0.00000       Uiso       1.00
      C446          C  0.7576447  0.8838549  0.0100539    0.00000       Uiso       1.00
      C447          C  0.7690721  0.8725733  0.0084376    0.00000       Uiso       1.00
      C448          C  0.7919850  0.8822647  0.0049049    0.00000       Uiso       1.00
      C449          C  0.7690721  0.9049477  0.0084376    0.00000       Uiso       1.00
      C450          C  0.7919111  0.9147295  0.0050461    0.00000       Uiso       1.00
      C451          C  0.8039671  0.9035836  0.0030793    0.00000       Uiso       1.00
      H361          H  0.0115434  0.1419322  0.0694789    0.00000       Uiso       1.00
      H362          H  0.7599992  0.9144064  0.0097742    0.00000       Uiso       1.00
      C452          C  0.0584486  0.9322434  0.0584424    0.00000       Uiso       1.00
      C453          C  0.0373558  0.9338596  0.0697241    0.00000       Uiso       1.00
      C454          C  0.0275738  0.9372513  0.0600589    0.00000       Uiso       1.00
      C455          C  0.0697303  0.9338597  0.0373496    0.00000       Uiso       1.00
      C456          C  0.0600388  0.9373925  0.0276610    0.00000       Uiso       1.00
      C457          C  0.0387201  0.9392186  0.0388247    0.00000       Uiso       1.00
      H363          H  0.8003752  0.8728255  0.0032023    0.00000       Uiso       1.00
      H364          H  0.0278971  0.9325231  0.0869190    0.00000       Uiso       1.00
      C458          C  0.0584486  0.1846595  0.0584422    0.00000       Uiso       1.00
      C459          C  0.0697303  0.1732321  0.0373494    0.00000       Uiso       1.00
      C460          C  0.0600663  0.1503929  0.0275686    0.00000       Uiso       1.00
      C461          C  0.0373558  0.1732321  0.0697239    0.00000       Uiso       1.00
      C462          C  0.0276685  0.1503188  0.0600342    0.00000       Uiso       1.00
      C463          C  0.0388332  0.1383367  0.0387157    0.00000       Uiso       1.00
      H365          H  0.0032066  0.9307628  0.8003684    0.00000       Uiso       1.00
      H366          H  0.0869252  0.1823049  0.0278908    0.00000       Uiso       1.00
      C464          C  0.0100601  0.8838553  0.7576380    0.00000       Uiso       1.00
      C465          C  0.0084438  0.9049481  0.7690653    0.00000       Uiso       1.00
      C466          C  0.0049114  0.9146370  0.7919781    0.00000       Uiso       1.00
      C467          C  0.0084438  0.8725737  0.7690654    0.00000       Uiso       1.00
      C468          C  0.0050532  0.8822396  0.7919042    0.00000       Uiso       1.00
      C469          C  0.0030865  0.9034745  0.8039597    0.00000       Uiso       1.00
      H367          H  0.0694799  0.9390961  0.0115346    0.00000       Uiso       1.00
      C470          C  0.9711515  0.9711533  0.9711459    0.00000       Uiso       1.00
      H368          H  0.0097804  0.8553788  0.7599925    0.00000       Uiso       1.00
      N121          N  0.7570545  0.8497975  0.0102081    0.00000       Uiso       1.00
      H369          H  0.7677328  0.8441290  0.0086878    0.00000       Uiso       1.00
      H370          H  0.7450218  0.8504208  0.0249932    0.00000       Uiso       1.00
      N122          N  0.0102142  0.9174767  0.7570478    0.00000       Uiso       1.00
      H371          H  0.0086939  0.9323032  0.7677260    0.00000       Uiso       1.00
      H372          H  0.0249994  0.9196059  0.7450151    0.00000       Uiso       1.00
      N123          N  0.0248271  0.1852496  0.0924996    0.00000       Uiso       1.00
      H373          H  0.0100006  0.1745714  0.0981682    0.00000       Uiso       1.00
      H374          H  0.0334244  0.1919483  0.1026796    0.00000       Uiso       1.00
      N124          N  0.0925061  0.9320893  0.0248210    0.00000       Uiso       1.00
      H375          H  0.0981746  0.9336095  0.0099945    0.00000       Uiso       1.00
      H376          H  0.1026860  0.9441677  0.0334183    0.00000       Uiso       1.00
      N125          N  0.8032551  0.9377508  0.0039418    0.00000       Uiso       1.00
      H377          H  0.8193974  0.9425784  0.0014782    0.00000       Uiso       1.00
      H378          H  0.8015742  0.9379333  0.9913875    0.00000       Uiso       1.00
      N126          N  0.0728495  0.1390469  0.0045494    0.00000       Uiso       1.00
      H379          H  0.0639986  0.1229047  0.9997227    0.00000       Uiso       1.00
      H380          H  0.0758472  0.1459425  0.9941652    0.00000       Uiso       1.00
      N127          N  0.0039485  0.8694575  0.8032478    0.00000       Uiso       1.00
      H381          H  0.0014854  0.8783087  0.8193901    0.00000       Uiso       1.00
      H382          H  0.9913945  0.8550410  0.8015674    0.00000       Uiso       1.00
      N128          N  0.0045530  0.9383570  0.0728417    0.00000       Uiso       1.00
      H383          H  0.9997256  0.9408207  0.0639909    0.00000       Uiso       1.00
      H384          H  0.9941722  0.9240749  0.0758384    0.00000       Uiso       1.00
      C471          C  0.8287136  0.9140552  0.9990419    0.00000       Uiso       1.00
      C472          C  0.8389654  0.9096357  0.0074267    0.00000       Uiso       1.00
      C473          C  0.8619640  0.9192407  0.0035716    0.00000       Uiso       1.00
      C474          C  0.8423857  0.9286124  0.9866988    0.00000       Uiso       1.00
      C475          C  0.8653514  0.9384699  0.9829075    0.00000       Uiso       1.00
      C476          C  0.8752033  0.9337509  0.9913231    0.00000       Uiso       1.00
      H385          H  0.8352750  0.9320596  0.9796425    0.00000       Uiso       1.00
      H386          H  0.8290280  0.8989112  0.0172479    0.00000       Uiso       1.00
      C477          C  0.0282486  0.9432565  0.0285891    0.00000       Uiso       1.00
      C478          C  0.0136991  0.9556077  0.0418176    0.00000       Uiso       1.00
      C479          C  0.0038404  0.9593988  0.0325021    0.00000       Uiso       1.00
      C480          C  0.0326580  0.9348630  0.0055354    0.00000       Uiso       1.00
      C481          C  0.0230520  0.9387183  0.9959989    0.00000       Uiso       1.00
      C482          C  0.0085510  0.9509742  0.0095168    0.00000       Uiso       1.00
      H387          H  0.0433740  0.9250341  0.9949233    0.00000       Uiso       1.00
      H388          H  0.0102585  0.9626710  0.0594323    0.00000       Uiso       1.00
      C483          C  0.0285994  0.1135905  0.0282441    0.00000       Uiso       1.00
      C484          C  0.0418306  0.0999204  0.0136864    0.00000       Uiso       1.00
      C485          C  0.0325150  0.0769526  0.0038258    0.00000       Uiso       1.00
      C486          C  0.0055449  0.1033381  0.0326613    0.00000       Uiso       1.00
      C487          C  0.9960097  0.0803412  0.0230563    0.00000       Uiso       1.00
      C488          C  0.0095262  0.0671006  0.0085459    0.00000       Uiso       1.00
      H389          H  0.9949329  0.1132691  0.0433823    0.00000       Uiso       1.00
      H390          H  0.0594477  0.1070388  0.0102430    0.00000       Uiso       1.00
      C489          C  0.9990499  0.9137121  0.8287057    0.00000       Uiso       1.00
      C490          C  0.0074408  0.9367667  0.8389568    0.00000       Uiso       1.00
      C491          C  0.0035837  0.9463049  0.8619553    0.00000       Uiso       1.00
      C492          C  0.9867007  0.9004846  0.8423782    0.00000       Uiso       1.00
      C493          C  0.9829099  0.9098013  0.8653438    0.00000       Uiso       1.00
      C494          C  0.9913299  0.9327866  0.8751948    0.00000       Uiso       1.00
      H391          H  0.9796407  0.8828710  0.8352668    0.00000       Uiso       1.00
      H392          H  0.0172698  0.9473712  0.8290156    0.00000       Uiso       1.00
      C495          C  0.0117295  0.9692091  0.8720361    0.00000       Uiso       1.00
      C496          C  0.0075850  0.9785777  0.8948995    0.00000       Uiso       1.00
      C497          C  0.0277243  0.9305658  0.9730941    0.00000       Uiso       1.00
      C498          C  0.0183717  0.9347071  0.9637256    0.00000       Uiso       1.00
      N129          N  0.0431348  0.9173398  0.9581349    0.00000       Uiso       1.00
      H393          H  0.0445996  0.9128425  0.9423447    0.00000       Uiso       1.00
      H394          H  0.0580602  0.9265772  0.9599831    0.00000       Uiso       1.00
      N130          N  0.0241082  0.9258311  0.9390297    0.00000       Uiso       1.00
      H395          H  0.0161569  0.9301473  0.9348873    0.00000       Uiso       1.00
      H396          H  0.0405129  0.9321406  0.9319292    0.00000       Uiso       1.00
      N131          N  0.0164542  0.0032741  0.9049885    0.00000       Uiso       1.00
      H397          H  0.0121347  0.0074132  0.9213983    0.00000       Uiso       1.00
      H398          H  0.0330231  0.0085476  0.8982974    0.00000       Uiso       1.00
      N132          N  0.0249541  0.9841636  0.8583540    0.00000       Uiso       1.00
      H399          H  0.0294487  0.9999555  0.8681797    0.00000       Uiso       1.00
      H400          H  0.0385355  0.9802058  0.8469032    0.00000       Uiso       1.00
      C499          C  0.8983607  0.9434291  0.9873360    0.00000       Uiso       1.00
      C500          C  0.9082997  0.9383928  0.9953654    0.00000       Uiso       1.00
      C501          C  0.9314048  0.9475496  0.9908109    0.00000       Uiso       1.00
      C502          C  0.9115806  0.9578536  0.9750305    0.00000       Uiso       1.00
      C503          C  0.9345791  0.9671247  0.9708456    0.00000       Uiso       1.00
      C504          C  0.9451472  0.9623539  0.9786382    0.00000       Uiso       1.00
      H401          H  0.9644748  0.9813250  0.0146052    0.00000       Uiso       1.00
      H402          H  0.9499083  0.0038212  0.9998681    0.00000       Uiso       1.00
      C505          C  0.9988731  0.9549596  0.0000241    0.00000       Uiso       1.00
      C506          C  0.9844549  0.9672728  0.0135339    0.00000       Uiso       1.00
      C507          C  0.9751821  0.9714570  0.0039915    0.00000       Uiso       1.00
      C508          C  0.0038999  0.9469206  0.9770187    0.00000       Uiso       1.00
      C509          C  0.9947445  0.9514769  0.9676249    0.00000       Uiso       1.00
      C510          C  0.9799494  0.9636601  0.9808594    0.00000       Uiso       1.00
      H403          H  0.9384861  0.9424390  0.9963399    0.00000       Uiso       1.00
      H404          H  0.9610035  0.9276931  0.9445298    0.00000       Uiso       1.00
      C511          C  0.0000305  0.0439454  0.9988689    0.00000       Uiso       1.00
      C512          C  0.0135410  0.0307250  0.9844416    0.00000       Uiso       1.00
      C513          C  0.0039967  0.0077259  0.9751703    0.00000       Uiso       1.00
      C514          C  0.9770244  0.0340070  0.0039078    0.00000       Uiso       1.00
      C515          C  0.9676291  0.0109015  0.9947529    0.00000       Uiso       1.00
      C516          C  0.9808643  0.9971581  0.9799461    0.00000       Uiso       1.00
      H405          H  0.9963548  0.9923996  0.9384831    0.00000       Uiso       1.00
      H406          H  0.9445392  0.9778386  0.9609850    0.00000       Uiso       1.00
      C517          C  0.9873428  0.9422787  0.8983521    0.00000       Uiso       1.00
      C518          C  0.9953760  0.9652848  0.9082917    0.00000       Uiso       1.00
      C519          C  0.9908190  0.9746782  0.9313988    0.00000       Uiso       1.00
      C520          C  0.9750364  0.9287675  0.9115722    0.00000       Uiso       1.00
      C521          C  0.9708535  0.9383092  0.9345716    0.00000       Uiso       1.00
      C522          C  0.9786441  0.9614415  0.9451407    0.00000       Uiso       1.00
      H407          H  0.0146083  0.9977617  0.9644478    0.00000       Uiso       1.00
      H408          H  0.9998482  0.9459395  0.9499031    0.00000       Uiso       1.00
      C523          C  0.9637315  0.0473991  0.0183890    0.00000       Uiso       1.00
      C524          C  0.9731024  0.0702620  0.0277395    0.00000       Uiso       1.00
      C525          C  0.0364392  0.0407508  0.9797958    0.00000       Uiso       1.00
      C526          C  0.0457980  0.0635562  0.9893840    0.00000       Uiso       1.00
      C527          C  0.8949087  0.9239107  0.0075696    0.00000       Uiso       1.00
      C528          C  0.8720451  0.9145574  0.0117124    0.00000       Uiso       1.00
      C529          C  0.9015536  0.9625007  0.9668055    0.00000       Uiso       1.00
      C530          C  0.8787453  0.9529126  0.9706692    0.00000       Uiso       1.00
      C531          C  0.9668088  0.9058691  0.9015451    0.00000       Uiso       1.00
      C532          C  0.9706693  0.8965147  0.8787385    0.00000       Uiso       1.00
      C533          C  0.9798169  0.9755072  0.0364323    0.00000       Uiso       1.00
      C534          C  0.9894058  0.9716451  0.0457883    0.00000       Uiso       1.00
      N133          N  0.8583618  0.8991360  0.0249269    0.00000       Uiso       1.00
      H409          H  0.8681861  0.8976603  0.0294196    0.00000       Uiso       1.00
      H410          H  0.8469084  0.9052195  0.0385093    0.00000       Uiso       1.00
      N134          N  0.9049938  0.9181631  0.0164337    0.00000       Uiso       1.00
      H411          H  0.8930866  0.9076537  0.0247184    0.00000       Uiso       1.00
      H412          H  0.9161690  0.9109959  0.0038108    0.00000       Uiso       1.00
      N135          N  0.8687366  0.9582812  0.9613869    0.00000       Uiso       1.00
      H413          H  0.8806413  0.9688176  0.9531325    0.00000       Uiso       1.00
      H414          H  0.8614919  0.9443077  0.9510251    0.00000       Uiso       1.00
      N136          N  0.9152513  0.9777969  0.9534560    0.00000       Uiso       1.00
      H415          H  0.9054272  0.9792374  0.9489329    0.00000       Uiso       1.00
      H416          H  0.9228380  0.9927462  0.9626222    0.00000       Uiso       1.00
      N137          N  0.9390346  0.0373139  0.0241367    0.00000       Uiso       1.00
      H417          H  0.9321476  0.0492211  0.0346457    0.00000       Uiso       1.00
      H418          H  0.9351326  0.0298192  0.0102892    0.00000       Uiso       1.00
      N138          N  0.9581446  0.0839399  0.0431603    0.00000       Uiso       1.00
      H419          H  0.9423532  0.0741125  0.0446317    0.00000       Uiso       1.00
      H420          H  0.9600009  0.0914751  0.0580819    0.00000       Uiso       1.00
      N139          N  0.0513841  0.0270497  0.9644995    0.00000       Uiso       1.00
      H421          H  0.0671724  0.0368714  0.9630584    0.00000       Uiso       1.00
      H422          H  0.0473727  0.0156357  0.9706607    0.00000       Uiso       1.00
      N140          N  0.0704581  0.0735574  0.9840139    0.00000       Uiso       1.00
      H423          H  0.0773394  0.0616491  0.9734779    0.00000       Uiso       1.00
      H424          H  0.0764271  0.0849293  0.9770002    0.00000       Uiso       1.00
      N141          N  0.9840447  0.9809404  0.0704472    0.00000       Uiso       1.00
      H425          H  0.9735126  0.9891989  0.0773299    0.00000       Uiso       1.00
      H426          H  0.9770294  0.9685268  0.0764205    0.00000       Uiso       1.00
      N142          N  0.9645299  0.9888669  0.0513762    0.00000       Uiso       1.00
      H427          H  0.9630932  0.9933971  0.0671641    0.00000       Uiso       1.00
      H428          H  0.9706961  0.0024286  0.0473589    0.00000       Uiso       1.00
      N143          N  0.9534618  0.8909243  0.9152460    0.00000       Uiso       1.00
      H429          H  0.9489346  0.8751361  0.9054247    0.00000       Uiso       1.00
      H430          H  0.9626313  0.8927275  0.9228289    0.00000       Uiso       1.00
      N144          N  0.9613814  0.8718551  0.8687340    0.00000       Uiso       1.00
      H431          H  0.9531262  0.8649716  0.8806408    0.00000       Uiso       1.00
      H432          H  0.9510192  0.8682235  0.8614904    0.00000       Uiso       1.00
        B1          B  0.7325720  0.4586175  0.5985988    0.00000       Uiso       1.00
        B2          B  0.5986055  0.4586174  0.5985988    0.00000       Uiso       1.00
        B3          B  0.5986055  0.4586175  0.7325651    0.00000       Uiso       1.00
      C535          C  0.6619783  0.4571280  0.6234989    0.00000       Uiso       1.00
      C536          C  0.6999519  0.4575139  0.6052231    0.00000       Uiso       1.00
      H433          H  0.6830496  0.4572009  0.5893517    0.00000       Uiso       1.00
        O1          O  0.7199492  0.4581750  0.5882642    0.00000       Uiso       1.00
      C537          C  0.6815062  0.4572818  0.6046727    0.00000       Uiso       1.00
      C538          C  0.6235056  0.4571280  0.6428027    0.00000       Uiso       1.00
      C539          C  0.6052298  0.4575138  0.6234908    0.00000       Uiso       1.00
      H434          H  0.5893583  0.4572009  0.6559516    0.00000       Uiso       1.00
        O2          O  0.5882708  0.4581749  0.6211135    0.00000       Uiso       1.00
      C540          C  0.6046794  0.4572818  0.6422549    0.00000       Uiso       1.00
      C541          C  0.6428095  0.4571280  0.6619716    0.00000       Uiso       1.00
      C542          C  0.6234975  0.4575139  0.6999451    0.00000       Uiso       1.00
      H435          H  0.6559584  0.4572009  0.6830428    0.00000       Uiso       1.00
        O3          O  0.6211202  0.4581750  0.7199424    0.00000       Uiso       1.00
      C543          C  0.6422616  0.4572818  0.6814994    0.00000       Uiso       1.00
      C544          C  0.6428095  0.4571280  0.6234989    0.00000       Uiso       1.00
      C545          C  0.6234975  0.4575139  0.6052231    0.00000       Uiso       1.00
        O4          O  0.6211203  0.4581749  0.5882642    0.00000       Uiso       1.00
      H436          H  0.6559584  0.4572009  0.5893517    0.00000       Uiso       1.00
      C546          C  0.6422617  0.4572818  0.6046727    0.00000       Uiso       1.00
      C547          C  0.6619784  0.4571280  0.6428027    0.00000       Uiso       1.00
      C548          C  0.6999519  0.4575139  0.6234908    0.00000       Uiso       1.00
      H437          H  0.6830496  0.4572009  0.6559516    0.00000       Uiso       1.00
        O5          O  0.7199492  0.4581750  0.6211135    0.00000       Uiso       1.00
      C549          C  0.6815061  0.4572818  0.6422549    0.00000       Uiso       1.00
      C550          C  0.6235057  0.4571280  0.6619716    0.00000       Uiso       1.00
      C551          C  0.6052299  0.4575139  0.6999450    0.00000       Uiso       1.00
      H438          H  0.5893583  0.4572009  0.6830428    0.00000       Uiso       1.00
        O6          O  0.5882708  0.4581750  0.7199424    0.00000       Uiso       1.00
      C552          C  0.6046793  0.4572818  0.6814994    0.00000       Uiso       1.00
        B4          B  0.5986054  0.8725654  0.7325651    0.00000       Uiso       1.00
        B5          B  0.5986054  0.7385991  0.5985987    0.00000       Uiso       1.00
        B6          B  0.7325719  0.8725654  0.5985987    0.00000       Uiso       1.00
      C553          C  0.6235056  0.8283615  0.6619716    0.00000       Uiso       1.00
      C554          C  0.6052298  0.8476734  0.6999450    0.00000       Uiso       1.00
      H439          H  0.5893582  0.8152125  0.6830428    0.00000       Uiso       1.00
        O7          O  0.5882708  0.8500506  0.7199423    0.00000       Uiso       1.00
      C555          C  0.6046793  0.8289092  0.6814993    0.00000       Uiso       1.00
      C556          C  0.6428094  0.8091926  0.6234989    0.00000       Uiso       1.00
      C557          C  0.6234975  0.7712191  0.6052231    0.00000       Uiso       1.00
      H440          H  0.6559583  0.7881214  0.5893516    0.00000       Uiso       1.00
        O8          O  0.6211202  0.7512218  0.5882642    0.00000       Uiso       1.00
      C558          C  0.6422616  0.7896648  0.6046727    0.00000       Uiso       1.00
      C559          C  0.6619783  0.8476653  0.6428027    0.00000       Uiso       1.00
      C560          C  0.6999518  0.8659410  0.6234908    0.00000       Uiso       1.00
      H441          H  0.6830496  0.8818126  0.6559516    0.00000       Uiso       1.00
        O9          O  0.7199491  0.8829000  0.6211135    0.00000       Uiso       1.00
      C561          C  0.6815061  0.8664915  0.6422549    0.00000       Uiso       1.00
      C562          C  0.6235056  0.8091926  0.6428027    0.00000       Uiso       1.00
      C563          C  0.6052298  0.7712191  0.6234908    0.00000       Uiso       1.00
       O10          O  0.5882708  0.7512218  0.6211135    0.00000       Uiso       1.00
      H442          H  0.5893582  0.7881214  0.6559516    0.00000       Uiso       1.00
      C564          C  0.6046794  0.7896649  0.6422549    0.00000       Uiso       1.00
      C565          C  0.6428094  0.8476653  0.6619716    0.00000       Uiso       1.00
      C566          C  0.6234975  0.8659410  0.6999450    0.00000       Uiso       1.00
      H443          H  0.6559583  0.8818126  0.6830428    0.00000       Uiso       1.00
       O11          O  0.6211202  0.8829000  0.7199423    0.00000       Uiso       1.00
      C567          C  0.6422616  0.8664915  0.6814993    0.00000       Uiso       1.00
      C568          C  0.6619783  0.8283615  0.6234989    0.00000       Uiso       1.00
      C569          C  0.6999518  0.8476734  0.6052231    0.00000       Uiso       1.00
      H444          H  0.6830496  0.8152126  0.5893516    0.00000       Uiso       1.00
       O12          O  0.7199491  0.8500506  0.5882642    0.00000       Uiso       1.00
      C570          C  0.6815061  0.8289092  0.6046727    0.00000       Uiso       1.00
      C571          C  0.5429528  0.3767814  0.2287508    0.00000       Uiso       1.00
      C572          C  0.5440816  0.3580503  0.2098821    0.00000       Uiso       1.00
      C573          C  0.5462754  0.3400724  0.2092822    0.00000       Uiso       1.00
      C574          C  0.5462656  0.3210224  0.1906336    0.00000       Uiso       1.00
      C575          C  0.5428113  0.3190242  0.1725959    0.00000       Uiso       1.00
      C576          C  0.5403003  0.3372256  0.1736932    0.00000       Uiso       1.00
      C577          C  0.5424598  0.3573160  0.1913238    0.00000       Uiso       1.00
       O13          O  0.5434260  0.3797871  0.2485364    0.00000       Uiso       1.00
      H445          H  0.5480192  0.3408734  0.2233662    0.00000       Uiso       1.00
      H446          H  0.5487465  0.3079113  0.1907141    0.00000       Uiso       1.00
      H447          H  0.5352408  0.3353367  0.1614340    0.00000       Uiso       1.00
      C578          C  0.5430108  0.3949376  0.0943576    0.00000       Uiso       1.00
      C579          C  0.5441527  0.3959312  0.1130839    0.00000       Uiso       1.00
      C580          C  0.5463356  0.4154987  0.1310688    0.00000       Uiso       1.00
      C581          C  0.5463193  0.4158845  0.1501195    0.00000       Uiso       1.00
      C582          C  0.5428637  0.3963889  0.1521147    0.00000       Uiso       1.00
      C583          C  0.5403745  0.3767809  0.1339002    0.00000       Uiso       1.00
      C584          C  0.5425432  0.3764880  0.1138095    0.00000       Uiso       1.00
       O14          O  0.5434542  0.4121850  0.0913677    0.00000       Uiso       1.00
      H448          H  0.5480649  0.4305244  0.1302796    0.00000       Uiso       1.00
      H449          H  0.5487893  0.4315544  0.1632353    0.00000       Uiso       1.00
      H450          H  0.5353166  0.3613470  0.1357764    0.00000       Uiso       1.00
      C585          C  0.5429909  0.2424314  0.0762367    0.00000       Uiso       1.00
      C586          C  0.5441498  0.2613091  0.0752385    0.00000       Uiso       1.00
      C587          C  0.5463633  0.2619127  0.0556607    0.00000       Uiso       1.00
      C588          C  0.5463744  0.2805686  0.0552607    0.00000       Uiso       1.00
      C589          C  0.5429220  0.2986091  0.0747529    0.00000       Uiso       1.00
      C590          C  0.5404031  0.2975114  0.0943731    0.00000       Uiso       1.00
      C591          C  0.5425345  0.2798685  0.0946817    0.00000       Uiso       1.00
       O15          O  0.5434602  0.2226472  0.0589824    0.00000       Uiso       1.00
      H451          H  0.5480950  0.2478190  0.0406401    0.00000       Uiso       1.00
      H452          H  0.5488605  0.2804876  0.0395856    0.00000       Uiso       1.00
      H453          H  0.5353515  0.3097754  0.1098016    0.00000       Uiso       1.00
      C592          C  0.5401365  0.2415347  0.0955104    0.00000       Uiso       1.00
      C593          C  0.5396136  0.2598848  0.1147974    0.00000       Uiso       1.00
      C594          C  0.5372238  0.2590514  0.1343359    0.00000       Uiso       1.00
      C595          C  0.5375764  0.2778417  0.1532422    0.00000       Uiso       1.00
      C596          C  0.5416001  0.2982672  0.1526894    0.00000       Uiso       1.00
      C597          C  0.5444638  0.2988379  0.1326721    0.00000       Uiso       1.00
      C598          C  0.5419022  0.2796758  0.1141836    0.00000       Uiso       1.00
       O16          O  0.5385094  0.2210953  0.0932010    0.00000       Uiso       1.00
      H454          H  0.5349950  0.2437136  0.1349053    0.00000       Uiso       1.00
      H455          H  0.5348481  0.2761224  0.1681113    0.00000       Uiso       1.00
      H456          H  0.5499922  0.3144839  0.1309924    0.00000       Uiso       1.00
      C599          C  0.5401942  0.3756712  0.0770243    0.00000       Uiso       1.00
      C600          C  0.5396917  0.3563908  0.0766043    0.00000       Uiso       1.00
      C601          C  0.5373493  0.3368622  0.0586032    0.00000       Uiso       1.00
      C602          C  0.5377165  0.3179637  0.0581340    0.00000       Uiso       1.00
      C603          C  0.5417034  0.3185111  0.0751106    0.00000       Uiso       1.00
      C604          C  0.5445228  0.3385203  0.0928518    0.00000       Uiso       1.00
      C605          C  0.5419503  0.3569994  0.0947345    0.00000       Uiso       1.00
       O17          O  0.5385737  0.3779812  0.0605184    0.00000       Uiso       1.00
      H457          H  0.5351362  0.3362912  0.0449134    0.00000       Uiso       1.00
      H458          H  0.5350211  0.3031030  0.0442566    0.00000       Uiso       1.00
      H459          H  0.5500352  0.3402107  0.1046670    0.00000       Uiso       1.00
      C606          C  0.5401340  0.3941129  0.2296316    0.00000       Uiso       1.00
      C607          C  0.5396170  0.3945235  0.2112778    0.00000       Uiso       1.00
      C608          C  0.5372809  0.4125274  0.2120933    0.00000       Uiso       1.00
      C609          C  0.5376513  0.4130013  0.1932979    0.00000       Uiso       1.00
      C610          C  0.5416268  0.3960187  0.1728814    0.00000       Uiso       1.00
      C611          C  0.5444305  0.3782670  0.1723314    0.00000       Uiso       1.00
      C612          C  0.5418631  0.3763877  0.1915009    0.00000       Uiso       1.00
       O18          O  0.5385376  0.4106324  0.2500589    0.00000       Uiso       1.00
      H460          H  0.5350766  0.4262187  0.2274265    0.00000       Uiso       1.00
      H461          H  0.5349702  0.4268881  0.1950116    0.00000       Uiso       1.00
      H462          H  0.5499318  0.3664437  0.1566933    0.00000       Uiso       1.00
        B7          B  0.5406169  0.4013442  0.2619398    0.00000       Uiso       1.00
        B8          B  0.5406335  0.4012246  0.0698164    0.00000       Uiso       1.00
        B9          B  0.5406129  0.2092258  0.0699470    0.00000       Uiso       1.00
      C613          C  0.2287573  0.3949345  0.5429462    0.00000       Uiso       1.00
      C614          C  0.2098885  0.3959256  0.5440749    0.00000       Uiso       1.00
      C615          C  0.2092887  0.4154975  0.5462687    0.00000       Uiso       1.00
      C616          C  0.1906400  0.4158891  0.5462589    0.00000       Uiso       1.00
      C617          C  0.1726023  0.3963953  0.5428046    0.00000       Uiso       1.00
      C618          C  0.1736996  0.3767802  0.5402936    0.00000       Uiso       1.00
      C619          C  0.1913303  0.3764800  0.5424531    0.00000       Uiso       1.00
       O19          O  0.2485429  0.4121875  0.5434193    0.00000       Uiso       1.00
      H463          H  0.2233727  0.4305243  0.5480124    0.00000       Uiso       1.00
      H464          H  0.1907205  0.4315615  0.5487397    0.00000       Uiso       1.00
      H465          H  0.1614404  0.3613504  0.5352342    0.00000       Uiso       1.00
      C620          C  0.0943640  0.2424432  0.5430042    0.00000       Uiso       1.00
      C621          C  0.1130903  0.2613177  0.5441460    0.00000       Uiso       1.00
      C622          C  0.1310752  0.2619180  0.5463289    0.00000       Uiso       1.00
      C623          C  0.1501259  0.2805666  0.5463127    0.00000       Uiso       1.00
      C624          C  0.1521211  0.2986019  0.5428571    0.00000       Uiso       1.00
      C625          C  0.1339066  0.2975061  0.5403678    0.00000       Uiso       1.00
      C626          C  0.1138159  0.2798769  0.5425365    0.00000       Uiso       1.00
       O20          O  0.0913741  0.2226491  0.5434474    0.00000       Uiso       1.00
      H466          H  0.1302861  0.2478325  0.5480582    0.00000       Uiso       1.00
      H467          H  0.1632417  0.2804826  0.5487826    0.00000       Uiso       1.00
      H468          H  0.1357827  0.3097583  0.5353100    0.00000       Uiso       1.00
      C627          C  0.0762430  0.3768084  0.5429841    0.00000       Uiso       1.00
      C628          C  0.0752447  0.3580914  0.5441431    0.00000       Uiso       1.00
      C629          C  0.0556669  0.3401236  0.5463566    0.00000       Uiso       1.00
      C630          C  0.0552670  0.3210788  0.5463678    0.00000       Uiso       1.00
      C631          C  0.0747592  0.3190781  0.5429153    0.00000       Uiso       1.00
      C632          C  0.0943794  0.3372771  0.5403965    0.00000       Uiso       1.00
      C633          C  0.0946880  0.3573600  0.5425277    0.00000       Uiso       1.00
       O21          O  0.0589887  0.3798077  0.5434534    0.00000       Uiso       1.00
      H469          H  0.0406464  0.3409284  0.5480884    0.00000       Uiso       1.00
      H470          H  0.0395919  0.3079708  0.5488538    0.00000       Uiso       1.00
      H471          H  0.1098079  0.3353899  0.5353448    0.00000       Uiso       1.00
      C634          C  0.0955167  0.3941245  0.5401298    0.00000       Uiso       1.00
      C635          C  0.1148037  0.3945385  0.5396069    0.00000       Uiso       1.00
      C636          C  0.1343422  0.4125206  0.5372171    0.00000       Uiso       1.00
      C637          C  0.1532486  0.4129891  0.5375696    0.00000       Uiso       1.00
      C638          C  0.1526958  0.3960347  0.5415934    0.00000       Uiso       1.00
      C639          C  0.1326785  0.3783104  0.5444571    0.00000       Uiso       1.00
      C640          C  0.1141900  0.3764224  0.5418956    0.00000       Uiso       1.00
       O22          O  0.0932073  0.4106274  0.5385027    0.00000       Uiso       1.00
      H472          H  0.1349117  0.4261990  0.5349883    0.00000       Uiso       1.00
      H473          H  0.1681177  0.4268493  0.5348414    0.00000       Uiso       1.00
      H474          H  0.1309988  0.3665130  0.5499855    0.00000       Uiso       1.00
      C641          C  0.0770307  0.2415597  0.5401875    0.00000       Uiso       1.00
      C642          C  0.0766106  0.2599175  0.5396850    0.00000       Uiso       1.00
      C643          C  0.0586095  0.2591026  0.5373426    0.00000       Uiso       1.00
      C644          C  0.0581403  0.2778991  0.5377098    0.00000       Uiso       1.00
      C645          C  0.0751169  0.2983152  0.5416967    0.00000       Uiso       1.00
      C646          C  0.0928582  0.2988667  0.5445161    0.00000       Uiso       1.00
      C647          C  0.0947409  0.2796977  0.5419436    0.00000       Uiso       1.00
       O23          O  0.0605247  0.2211233  0.5385670    0.00000       Uiso       1.00
      H475          H  0.0449197  0.2437707  0.5351295    0.00000       Uiso       1.00
      H476          H  0.0442629  0.2761871  0.5350145    0.00000       Uiso       1.00
      H477          H  0.1046733  0.3145037  0.5500284    0.00000       Uiso       1.00
      C648          C  0.2296381  0.3756651  0.5401274    0.00000       Uiso       1.00
      C649          C  0.2112843  0.3563836  0.5396103    0.00000       Uiso       1.00
      C650          C  0.2120998  0.3368592  0.5372742    0.00000       Uiso       1.00
      C651          C  0.1933044  0.3179602  0.5376446    0.00000       Uiso       1.00
      C652          C  0.1728879  0.3185017  0.5416200    0.00000       Uiso       1.00
      C653          C  0.1723378  0.3385071  0.5444238    0.00000       Uiso       1.00
      C654          C  0.1915074  0.3569887  0.5418565    0.00000       Uiso       1.00
       O24          O  0.2500654  0.3779765  0.5385310    0.00000       Uiso       1.00
      H478          H  0.2274330  0.3362967  0.5350699    0.00000       Uiso       1.00
      H479          H  0.1950181  0.3031060  0.5349635    0.00000       Uiso       1.00
      H480          H  0.1566997  0.3401937  0.5499251    0.00000       Uiso       1.00
       B10          B  0.2619464  0.4012248  0.5406101    0.00000       Uiso       1.00
       B11          B  0.0698227  0.2092375  0.5406268    0.00000       Uiso       1.00
       B12          B  0.0699532  0.4013463  0.5406062    0.00000       Uiso       1.00
       B13          B  0.0125533  0.8725655  0.5985988    0.00000       Uiso       1.00
       B14          B  0.0125534  0.7385992  0.5985988    0.00000       Uiso       1.00
       B15          B  0.0125533  0.8725656  0.7325652    0.00000       Uiso       1.00
      C655          C  0.0140428  0.8283616  0.6234989    0.00000       Uiso       1.00
      C656          C  0.0136570  0.8476735  0.6052231    0.00000       Uiso       1.00
      H481          H  0.0139699  0.8152127  0.5893517    0.00000       Uiso       1.00
       O25          O  0.0129959  0.8500507  0.5882642    0.00000       Uiso       1.00
      C657          C  0.0138890  0.8289094  0.6046727    0.00000       Uiso       1.00
      C658          C  0.0140428  0.8091927  0.6428027    0.00000       Uiso       1.00
      C659          C  0.0136570  0.7712193  0.6234908    0.00000       Uiso       1.00
      H482          H  0.0139700  0.7881215  0.6559517    0.00000       Uiso       1.00
       O26          O  0.0129959  0.7512220  0.6211136    0.00000       Uiso       1.00
      C660          C  0.0138890  0.7896650  0.6422549    0.00000       Uiso       1.00
      C661          C  0.0140428  0.8476654  0.6619716    0.00000       Uiso       1.00
      C662          C  0.0136569  0.8659412  0.6999451    0.00000       Uiso       1.00
      H483          H  0.0139700  0.8818127  0.6830428    0.00000       Uiso       1.00
       O27          O  0.0129959  0.8829001  0.7199424    0.00000       Uiso       1.00
      C663          C  0.0138890  0.8664916  0.6814994    0.00000       Uiso       1.00
      C664          C  0.0140428  0.8091927  0.6234989    0.00000       Uiso       1.00
      C665          C  0.0136570  0.7712193  0.6052232    0.00000       Uiso       1.00
       O28          O  0.0129959  0.7512220  0.5882642    0.00000       Uiso       1.00
      H484          H  0.0139700  0.7881215  0.5893517    0.00000       Uiso       1.00
      C666          C  0.0138890  0.7896650  0.6046727    0.00000       Uiso       1.00
      C667          C  0.0140428  0.8476654  0.6428027    0.00000       Uiso       1.00
      C668          C  0.0136569  0.8659412  0.6234908    0.00000       Uiso       1.00
      H485          H  0.0139699  0.8818127  0.6559517    0.00000       Uiso       1.00
       O29          O  0.0129959  0.8829001  0.6211135    0.00000       Uiso       1.00
      C669          C  0.0138890  0.8664916  0.6422549    0.00000       Uiso       1.00
      C670          C  0.0140428  0.8283616  0.6619716    0.00000       Uiso       1.00
      C671          C  0.0136569  0.8476735  0.6999451    0.00000       Uiso       1.00
      H486          H  0.0139699  0.8152127  0.6830428    0.00000       Uiso       1.00
       O30          O  0.0129958  0.8500507  0.7199424    0.00000       Uiso       1.00
      C672          C  0.0138890  0.8289094  0.6814994    0.00000       Uiso       1.00
      C673          C  0.0943893  0.3949347  0.2287512    0.00000       Uiso       1.00
      C674          C  0.1131204  0.3959258  0.2098824    0.00000       Uiso       1.00
      C675          C  0.1310984  0.4154978  0.2092826    0.00000       Uiso       1.00
      C676          C  0.1501484  0.4158893  0.1906339    0.00000       Uiso       1.00
      C677          C  0.1521467  0.3963955  0.1725962    0.00000       Uiso       1.00
      C678          C  0.1339452  0.3767804  0.1736935    0.00000       Uiso       1.00
      C679          C  0.1138548  0.3764802  0.1913242    0.00000       Uiso       1.00
       O31          O  0.0913836  0.4121877  0.2485367    0.00000       Uiso       1.00
      H487          H  0.1302974  0.4305245  0.2233666    0.00000       Uiso       1.00
      H488          H  0.1632595  0.4315617  0.1907144    0.00000       Uiso       1.00
      H489          H  0.1358341  0.3613506  0.1614344    0.00000       Uiso       1.00
      C680          C  0.0762331  0.2424434  0.0943580    0.00000       Uiso       1.00
      C681          C  0.0752395  0.2613179  0.1130843    0.00000       Uiso       1.00
      C682          C  0.0556720  0.2619182  0.1310692    0.00000       Uiso       1.00
      C683          C  0.0552862  0.2805668  0.1501199    0.00000       Uiso       1.00
      C684          C  0.0747818  0.2986021  0.1521150    0.00000       Uiso       1.00
      C685          C  0.0943898  0.2975063  0.1339006    0.00000       Uiso       1.00
      C686          C  0.0946827  0.2798771  0.1138099    0.00000       Uiso       1.00
       O32          O  0.0589856  0.2226493  0.0913681    0.00000       Uiso       1.00
      H490          H  0.0406463  0.2478327  0.1302800    0.00000       Uiso       1.00
      H491          H  0.0396163  0.2804827  0.1632357    0.00000       Uiso       1.00
      H492          H  0.1098237  0.3097585  0.1357767    0.00000       Uiso       1.00
      C687          C  0.2287395  0.3768087  0.0762371    0.00000       Uiso       1.00
      C688          C  0.2098618  0.3580916  0.0752388    0.00000       Uiso       1.00
      C689          C  0.2092582  0.3401238  0.0556611    0.00000       Uiso       1.00
      C690          C  0.1906022  0.3210791  0.0552611    0.00000       Uiso       1.00
      C691          C  0.1725618  0.3190783  0.0747533    0.00000       Uiso       1.00
      C692          C  0.1736595  0.3372774  0.0943735    0.00000       Uiso       1.00
      C693          C  0.1913024  0.3573602  0.0946821    0.00000       Uiso       1.00
       O33          O  0.2485238  0.3798079  0.0589828    0.00000       Uiso       1.00
      H493          H  0.2233519  0.3409287  0.0406405    0.00000       Uiso       1.00
      H494          H  0.1906832  0.3079710  0.0395860    0.00000       Uiso       1.00
      H495          H  0.1613954  0.3353902  0.1098020    0.00000       Uiso       1.00
      C694          C  0.2296362  0.3941248  0.0955108    0.00000       Uiso       1.00
      C695          C  0.2112861  0.3945387  0.1147977    0.00000       Uiso       1.00
      C696          C  0.2121195  0.4125208  0.1343362    0.00000       Uiso       1.00
      C697          C  0.1933291  0.4129893  0.1532426    0.00000       Uiso       1.00
      C698          C  0.1729036  0.3960349  0.1526898    0.00000       Uiso       1.00
      C699          C  0.1723330  0.3783106  0.1326725    0.00000       Uiso       1.00
      C700          C  0.1914951  0.3764226  0.1141840    0.00000       Uiso       1.00
       O34          O  0.2500757  0.4106276  0.0932013    0.00000       Uiso       1.00
      H496          H  0.2274573  0.4261992  0.1349057    0.00000       Uiso       1.00
      H497          H  0.1950485  0.4268495  0.1681117    0.00000       Uiso       1.00
      H498          H  0.1566869  0.3665132  0.1309928    0.00000       Uiso       1.00
      C701          C  0.0954996  0.2415599  0.0770247    0.00000       Uiso       1.00
      C702          C  0.1147799  0.2599177  0.0766047    0.00000       Uiso       1.00
      C703          C  0.1343086  0.2591028  0.0586036    0.00000       Uiso       1.00
      C704          C  0.1532072  0.2778993  0.0581344    0.00000       Uiso       1.00
      C705          C  0.1526597  0.2983153  0.0751110    0.00000       Uiso       1.00
      C706          C  0.1326505  0.2988669  0.0928522    0.00000       Uiso       1.00
      C707          C  0.1141714  0.2796979  0.0947349    0.00000       Uiso       1.00
       O35          O  0.0931896  0.2211235  0.0605188    0.00000       Uiso       1.00
      H499          H  0.1348796  0.2437709  0.0449138    0.00000       Uiso       1.00
      H500          H  0.1680679  0.2761873  0.0442570    0.00000       Uiso       1.00
      H501          H  0.1309600  0.3145039  0.1046674    0.00000       Uiso       1.00
      C708          C  0.0770578  0.3756652  0.2296320    0.00000       Uiso       1.00
      C709          C  0.0766472  0.3563838  0.2112782    0.00000       Uiso       1.00
      C710          C  0.0586432  0.3368593  0.2120937    0.00000       Uiso       1.00
      C711          C  0.0581694  0.3179604  0.1932983    0.00000       Uiso       1.00
      C712          C  0.0751520  0.3185019  0.1728818    0.00000       Uiso       1.00
      C713          C  0.0929037  0.3385073  0.1723318    0.00000       Uiso       1.00
      C714          C  0.0947831  0.3569889  0.1915013    0.00000       Uiso       1.00
       O36          O  0.0605383  0.3779767  0.2500592    0.00000       Uiso       1.00
      H502          H  0.0449520  0.3362969  0.2274269    0.00000       Uiso       1.00
      H503          H  0.0442826  0.3031062  0.1950120    0.00000       Uiso       1.00
      H504          H  0.1047270  0.3401939  0.1566937    0.00000       Uiso       1.00
       B16          B  0.0698265  0.4012250  0.2619402    0.00000       Uiso       1.00
       B17          B  0.0699461  0.2092377  0.0698167    0.00000       Uiso       1.00
       B18          B  0.2619451  0.4013466  0.0699473    0.00000       Uiso       1.00
       B19          B  0.7325719  0.8725652  0.0125471    0.00000       Uiso       1.00
       B20          B  0.5986055  0.7385988  0.0125471    0.00000       Uiso       1.00
       B21          B  0.5986054  0.8725652  0.0125471    0.00000       Uiso       1.00
      C715          C  0.6619783  0.8283612  0.0140366    0.00000       Uiso       1.00
      C716          C  0.6999519  0.8476732  0.0136507    0.00000       Uiso       1.00
      H505          H  0.6830496  0.8152124  0.0139637    0.00000       Uiso       1.00
       O37          O  0.7199492  0.8500504  0.0129896    0.00000       Uiso       1.00
      C717          C  0.6815061  0.8289090  0.0138828    0.00000       Uiso       1.00
      C718          C  0.6235056  0.8091924  0.0140366    0.00000       Uiso       1.00
      C719          C  0.6052299  0.7712188  0.0136507    0.00000       Uiso       1.00
      H506          H  0.5893583  0.7881212  0.0139637    0.00000       Uiso       1.00
       O38          O  0.5882708  0.7512216  0.0129896    0.00000       Uiso       1.00
      C720          C  0.6046793  0.7896646  0.0138828    0.00000       Uiso       1.00
      C721          C  0.6428094  0.8476650  0.0140366    0.00000       Uiso       1.00
      C722          C  0.6234975  0.8659407  0.0136507    0.00000       Uiso       1.00
      H507          H  0.6559583  0.8818123  0.0139637    0.00000       Uiso       1.00
       O39          O  0.6211202  0.8828997  0.0129896    0.00000       Uiso       1.00
      C723          C  0.6422616  0.8664912  0.0138828    0.00000       Uiso       1.00
      C724          C  0.6428094  0.8091924  0.0140366    0.00000       Uiso       1.00
      C725          C  0.6234975  0.7712188  0.0136507    0.00000       Uiso       1.00
       O40          O  0.6211203  0.7512216  0.0129896    0.00000       Uiso       1.00
      H508          H  0.6559584  0.7881212  0.0139637    0.00000       Uiso       1.00
      C726          C  0.6422617  0.7896646  0.0138828    0.00000       Uiso       1.00
      C727          C  0.6619783  0.8476650  0.0140366    0.00000       Uiso       1.00
      C728          C  0.6999519  0.8659408  0.0136507    0.00000       Uiso       1.00
      H509          H  0.6830496  0.8818123  0.0139637    0.00000       Uiso       1.00
       O41          O  0.7199492  0.8828997  0.0129896    0.00000       Uiso       1.00
      C729          C  0.6815061  0.8664913  0.0138828    0.00000       Uiso       1.00
      C730          C  0.6235056  0.8283612  0.0140366    0.00000       Uiso       1.00
      C731          C  0.6052298  0.8476731  0.0136507    0.00000       Uiso       1.00
      H510          H  0.5893583  0.8152123  0.0139637    0.00000       Uiso       1.00
       O42          O  0.5882708  0.8500503  0.0129896    0.00000       Uiso       1.00
      C732          C  0.6046793  0.8289090  0.0138828    0.00000       Uiso       1.00
      C733          C  0.2287572  0.9282176  0.0943829    0.00000       Uiso       1.00
      C734          C  0.2098885  0.9270889  0.1131140    0.00000       Uiso       1.00
      C735          C  0.2092887  0.9248950  0.1310919    0.00000       Uiso       1.00
      C736          C  0.1906399  0.9249048  0.1501419    0.00000       Uiso       1.00
      C737          C  0.1726023  0.9283592  0.1521401    0.00000       Uiso       1.00
      C738          C  0.1736995  0.9308701  0.1339387    0.00000       Uiso       1.00
      C739          C  0.1913302  0.9287106  0.1138483    0.00000       Uiso       1.00
       O43          O  0.2485429  0.9277445  0.0913772    0.00000       Uiso       1.00
      H511          H  0.2233726  0.9231513  0.1302909    0.00000       Uiso       1.00
      H512          H  0.1907205  0.9224240  0.1632530    0.00000       Uiso       1.00
      H513          H  0.1614404  0.9359296  0.1358276    0.00000       Uiso       1.00
      C740          C  0.0943639  0.9281596  0.0762267    0.00000       Uiso       1.00
      C741          C  0.1130902  0.9270176  0.0752330    0.00000       Uiso       1.00
      C742          C  0.1310751  0.9248348  0.0556655    0.00000       Uiso       1.00
      C743          C  0.1501258  0.9248511  0.0552798    0.00000       Uiso       1.00
      C744          C  0.1521210  0.9283066  0.0747754    0.00000       Uiso       1.00
      C745          C  0.1339065  0.9307958  0.0943834    0.00000       Uiso       1.00
      C746          C  0.1138158  0.9286273  0.0946762    0.00000       Uiso       1.00
       O44          O  0.0913739  0.9277162  0.0589792    0.00000       Uiso       1.00
      H514          H  0.1302860  0.9231055  0.0406399    0.00000       Uiso       1.00
      H515          H  0.1632416  0.9223812  0.0396099    0.00000       Uiso       1.00
      H516          H  0.1357827  0.9358537  0.1098172    0.00000       Uiso       1.00
      C747          C  0.0762429  0.9281796  0.2287329    0.00000       Uiso       1.00
      C748          C  0.0752447  0.9270207  0.2098552    0.00000       Uiso       1.00
      C749          C  0.0556669  0.9248071  0.2092516    0.00000       Uiso       1.00
      C750          C  0.0552669  0.9247959  0.1905956    0.00000       Uiso       1.00
      C751          C  0.0747591  0.9282484  0.1725552    0.00000       Uiso       1.00
      C752          C  0.0943794  0.9307674  0.1736529    0.00000       Uiso       1.00
      C753          C  0.0946880  0.9286360  0.1912958    0.00000       Uiso       1.00
       O45          O  0.0589887  0.9277103  0.2485171    0.00000       Uiso       1.00
      H517          H  0.0406463  0.9230753  0.2233453    0.00000       Uiso       1.00
      H518          H  0.0395918  0.9223099  0.1906766    0.00000       Uiso       1.00
      H519          H  0.1098079  0.9358190  0.1613889    0.00000       Uiso       1.00
      C754          C  0.0955167  0.9310339  0.2296296    0.00000       Uiso       1.00
      C755          C  0.1148036  0.9315568  0.2112795    0.00000       Uiso       1.00
      C756          C  0.1343422  0.9339466  0.2121129    0.00000       Uiso       1.00
      C757          C  0.1532486  0.9335941  0.1933226    0.00000       Uiso       1.00
      C758          C  0.1526958  0.9295703  0.1728971    0.00000       Uiso       1.00
      C759          C  0.1326785  0.9267067  0.1723264    0.00000       Uiso       1.00
      C760          C  0.1141899  0.9292682  0.1914885    0.00000       Uiso       1.00
       O46          O  0.0932072  0.9326611  0.2500690    0.00000       Uiso       1.00
      H520          H  0.1349116  0.9361754  0.2274507    0.00000       Uiso       1.00
      H521          H  0.1681177  0.9363225  0.1950420    0.00000       Uiso       1.00
      H522          H  0.1309987  0.9211782  0.1566804    0.00000       Uiso       1.00
      C761          C  0.0770306  0.9309762  0.0954931    0.00000       Uiso       1.00
      C762          C  0.0766106  0.9314787  0.1147734    0.00000       Uiso       1.00
      C763          C  0.0586094  0.9338211  0.1343021    0.00000       Uiso       1.00
      C764          C  0.0581402  0.9334539  0.1532006    0.00000       Uiso       1.00
      C765          C  0.0751168  0.9294670  0.1526532    0.00000       Uiso       1.00
      C766          C  0.0928581  0.9266475  0.1326440    0.00000       Uiso       1.00
      C767          C  0.0947408  0.9292201  0.1141649    0.00000       Uiso       1.00
       O47          O  0.0605246  0.9325967  0.0931831    0.00000       Uiso       1.00
      H523          H  0.0449196  0.9360342  0.1348731    0.00000       Uiso       1.00
      H524          H  0.0442628  0.9361492  0.1680613    0.00000       Uiso       1.00
      H525          H  0.1046733  0.9211353  0.1309535    0.00000       Uiso       1.00
      C768          C  0.2296380  0.9310364  0.0770514    0.00000       Uiso       1.00
      C769          C  0.2112842  0.9315534  0.0766408    0.00000       Uiso       1.00
      C770          C  0.2120998  0.9338895  0.0586368    0.00000       Uiso       1.00
      C771          C  0.1933043  0.9335191  0.0581630    0.00000       Uiso       1.00
      C772          C  0.1728878  0.9295437  0.0751455    0.00000       Uiso       1.00
      C773          C  0.1723377  0.9267399  0.0928972    0.00000       Uiso       1.00
      C774          C  0.1915073  0.9293073  0.0947766    0.00000       Uiso       1.00
       O48          O  0.2500654  0.9326328  0.0605319    0.00000       Uiso       1.00
      H526          H  0.2274330  0.9360939  0.0449456    0.00000       Uiso       1.00
      H527          H  0.1950180  0.9362003  0.0442762    0.00000       Uiso       1.00
      H528          H  0.1566997  0.9212387  0.1047206    0.00000       Uiso       1.00
       B22          B  0.2619463  0.9305536  0.0698201    0.00000       Uiso       1.00
       B23          B  0.0698226  0.9305369  0.0699396    0.00000       Uiso       1.00
       B24          B  0.0699532  0.9305575  0.2619385    0.00000       Uiso       1.00
