data_98
_audit_creation_date              0000-00-00
_audit_creation_method            'LanYouShi'
_symmetry_space_group_name_H-M    'P1'
_cell_length_a                    66.9181976
_cell_length_b                    66.9181976
_cell_length_c                    66.9181976
_cell_angle_alpha                 119.9993973
_cell_angle_beta                  119.9993973
_cell_angle_gamma                 60.0000000
loop_
_atom_site_label
_atom_site_type_symbol
_atom_site_fract_x
_atom_site_fract_y
_atom_site_fract_z
_atom_site_U_iso_or_equiv
_atom_site_adp_type
_atom_site_occupancy
        C1          C  0.4567253  0.7374603  0.5970943    0.00000       Uiso       1.00
        C2          C  0.4585231  0.7247511  0.5736353    0.00000       Uiso       1.00
        C3          C  0.4624522  0.6992676  0.5628595    0.00000       Uiso       1.00
        C4          C  0.4585228  0.7247508  0.6096416    0.00000       Uiso       1.00
        C5          C  0.4622948  0.6993495  0.5988916    0.00000       Uiso       1.00
        C6          C  0.4644825  0.6859412  0.5752743    0.00000       Uiso       1.00
        H1          H  0.3909281  0.4555908  0.3096930    0.00000       Uiso       1.00
        H2          H  0.4570360  0.7348413  0.6287655    0.00000       Uiso       1.00
        H3          H  0.4570366  0.7348419  0.5631155    0.00000       Uiso       1.00
        C7          C  0.4029110  0.4029109  0.2625448    0.00000       Uiso       1.00
        C8          C  0.3903635  0.4263701  0.2752542    0.00000       Uiso       1.00
        C9          C  0.4011128  0.4372493  0.3006552    0.00000       Uiso       1.00
       C10          C  0.4263701  0.3903634  0.2752542    0.00000       Uiso       1.00
       C11          C  0.4371455  0.4011420  0.3007376    0.00000       Uiso       1.00
       C12          C  0.4247292  0.4248523  0.3140627    0.00000       Uiso       1.00
        H4          H  0.6903123  0.4631746  0.5444142    0.00000       Uiso       1.00
        H5          H  0.4368901  0.3712395  0.2651635    0.00000       Uiso       1.00
        H6          H  0.3712395  0.4368901  0.2651635    0.00000       Uiso       1.00
       C13          C  0.4029086  0.4029085  0.5432775    0.00000       Uiso       1.00
       C14          C  0.4263679  0.3903611  0.5414799    0.00000       Uiso       1.00
       C15          C  0.4372461  0.4011093  0.5377047    0.00000       Uiso       1.00
       C16          C  0.3903612  0.4263678  0.5414799    0.00000       Uiso       1.00
       C17          C  0.4011380  0.4371419  0.5375468    0.00000       Uiso       1.00
       C18          C  0.4248484  0.4247247  0.5355135    0.00000       Uiso       1.00
        H7          H  0.4631746  0.6903113  0.6090750    0.00000       Uiso       1.00
        H8          H  0.3712371  0.4368877  0.5429664    0.00000       Uiso       1.00
        H9          H  0.4368878  0.3712370  0.5429664    0.00000       Uiso       1.00
       C19          C  0.7374603  0.4567253  0.5970942    0.00000       Uiso       1.00
       C20          C  0.7247507  0.4585228  0.6096416    0.00000       Uiso       1.00
       C21          C  0.6992673  0.4624515  0.5988628    0.00000       Uiso       1.00
       C22          C  0.7247510  0.4585232  0.5736352    0.00000       Uiso       1.00
       C23          C  0.6993500  0.4622943  0.5627556    0.00000       Uiso       1.00
       C24          C  0.6859418  0.4644814  0.5751520    0.00000       Uiso       1.00
       H10          H  0.4555866  0.3909243  0.5368204    0.00000       Uiso       1.00
       C25          C  0.4999990  0.5000006  0.4999997    0.00000       Uiso       1.00
       H11          H  0.7348419  0.4570366  0.5631154    0.00000       Uiso       1.00
       H12          H  0.7348413  0.4570360  0.6287655    0.00000       Uiso       1.00
        N1          N  0.4650959  0.6862414  0.5378218    0.00000       Uiso       1.00
        O1          O  0.4684660  0.6644899  0.5281194    0.00000       Uiso       1.00
        O2          O  0.4638440  0.6975525  0.5274599    0.00000       Uiso       1.00
        N2          N  0.6862407  0.4650983  0.6135195    0.00000       Uiso       1.00
        O3          O  0.6644892  0.4684682  0.6048408    0.00000       Uiso       1.00
        O4          O  0.6975512  0.4638492  0.6339415    0.00000       Uiso       1.00
        N3          N  0.4621827  0.3864841  0.3137618    0.00000       Uiso       1.00
        O5          O  0.4718865  0.3951611  0.3355132    0.00000       Uiso       1.00
        O6          O  0.4725421  0.3660625  0.3024496    0.00000       Uiso       1.00
        N4          N  0.3864745  0.4621773  0.5348979    0.00000       Uiso       1.00
        O7          O  0.3951469  0.4718832  0.5315241    0.00000       Uiso       1.00
        O8          O  0.3660530  0.4725332  0.5361481    0.00000       Uiso       1.00
       C26          C  0.4689727  0.6584184  0.5638877    0.00000       Uiso       1.00
       C27          C  0.4596478  0.6470165  0.5382456    0.00000       Uiso       1.00
       C28          C  0.4639355  0.6214378  0.5276372    0.00000       Uiso       1.00
       C29          C  0.4827004  0.6432122  0.5785996    0.00000       Uiso       1.00
       C30          C  0.4869172  0.6176701  0.5682376    0.00000       Uiso       1.00
       C31          C  0.4775576  0.6067131  0.5426724    0.00000       Uiso       1.00
       H13          H  0.4905481  0.6511205  0.5981899    0.00000       Uiso       1.00
       H14          H  0.4487247  0.6580691  0.5264474    0.00000       Uiso       1.00
       C32          C  0.4361129  0.4364984  0.3415837    0.00000       Uiso       1.00
       C33          C  0.4214001  0.4526801  0.3567896    0.00000       Uiso       1.00
       C34          C  0.4317605  0.4636447  0.3823313    0.00000       Uiso       1.00
       C35          C  0.4617530  0.4315942  0.3529844    0.00000       Uiso       1.00
       C36          C  0.4723587  0.4422777  0.3785613    0.00000       Uiso       1.00
       C37          C  0.4573245  0.4584055  0.3932865    0.00000       Uiso       1.00
       H15          H  0.4735553  0.4196761  0.3419365    0.00000       Uiso       1.00
       H16          H  0.4018092  0.4565069  0.3488812    0.00000       Uiso       1.00
       C38          C  0.4364949  0.4361067  0.5310194    0.00000       Uiso       1.00
       C39          C  0.4526860  0.4213912  0.5172911    0.00000       Uiso       1.00
       C40          C  0.4636530  0.4317519  0.5130740    0.00000       Uiso       1.00
       C41          C  0.4315820  0.4617476  0.5403449    0.00000       Uiso       1.00
       C42          C  0.4422647  0.4723532  0.5360562    0.00000       Uiso       1.00
       C43          C  0.4584032  0.4573198  0.5224349    0.00000       Uiso       1.00
       H17          H  0.4196581  0.4735507  0.5512694    0.00000       Uiso       1.00
       H18          H  0.4565158  0.4017976  0.5094443    0.00000       Uiso       1.00
       C44          C  0.6584194  0.4689716  0.5635060    0.00000       Uiso       1.00
       C45          C  0.6470183  0.4596387  0.5684130    0.00000       Uiso       1.00
       C46          C  0.6214396  0.4639287  0.5577326    0.00000       Uiso       1.00
       C47          C  0.6432131  0.4827065  0.5473229    0.00000       Uiso       1.00
       C48          C  0.6176711  0.4869227  0.5363588    0.00000       Uiso       1.00
       C49          C  0.6067147  0.4775580  0.5416020    0.00000       Uiso       1.00
       H19          H  0.6511225  0.4905586  0.5434945    0.00000       Uiso       1.00
       H20          H  0.6580747  0.4487069  0.5803321    0.00000       Uiso       1.00
       C50          C  0.6102277  0.4548689  0.5629349    0.00000       Uiso       1.00
       C51          C  0.5847993  0.4594784  0.5525355    0.00000       Uiso       1.00
       C52          C  0.4978332  0.4370811  0.3897722    0.00000       Uiso       1.00
       C53          C  0.5082526  0.4474829  0.4151993    0.00000       Uiso       1.00
       H21          H  0.5097694  0.4247851  0.3788591    0.00000       Uiso       1.00
       H22          H  0.5279644  0.4429040  0.4232477    0.00000       Uiso       1.00
       H23          H  0.6211442  0.4443172  0.5752316    0.00000       Uiso       1.00
       H24          H  0.5767466  0.4523994  0.5571151    0.00000       Uiso       1.00
       C54          C  0.4819922  0.5809576  0.5321154    0.00000       Uiso       1.00
       C55          C  0.4730621  0.5699039  0.5065301    0.00000       Uiso       1.00
       C56          C  0.4781277  0.5442066  0.4960824    0.00000       Uiso       1.00
       C57          C  0.4956781  0.5662544  0.5471411    0.00000       Uiso       1.00
       C58          C  0.5003326  0.5406756  0.5365281    0.00000       Uiso       1.00
       C59          C  0.4916659  0.5289224  0.5108018    0.00000       Uiso       1.00
       H25          H  0.4516645  0.5074266  0.4704042    0.00000       Uiso       1.00
       H26          H  0.4680541  0.5236271  0.5280138    0.00000       Uiso       1.00
       C60          C  0.4678820  0.4691696  0.4190407    0.00000       Uiso       1.00
       C61          C  0.4528564  0.4852052  0.4337456    0.00000       Uiso       1.00
       C62          C  0.4634691  0.4955181  0.4593251    0.00000       Uiso       1.00
       C63          C  0.4934680  0.4635781  0.4300940    0.00000       Uiso       1.00
       C64          C  0.5039154  0.4737610  0.4557920    0.00000       Uiso       1.00
       C65          C  0.4891959  0.4902160  0.4710777    0.00000       Uiso       1.00
       H27          H  0.4719786  0.5363310  0.4763736    0.00000       Uiso       1.00
       H28          H  0.5296014  0.5112871  0.4925522    0.00000       Uiso       1.00
       C66          C  0.4691654  0.4678809  0.5180048    0.00000       Uiso       1.00
       C67          C  0.4852116  0.4528548  0.5043209    0.00000       Uiso       1.00
       C68          C  0.4955230  0.4634699  0.4996680    0.00000       Uiso       1.00
       C69          C  0.4635616  0.4934686  0.5269357    0.00000       Uiso       1.00
       C70          C  0.4737432  0.5039181  0.5218685    0.00000       Uiso       1.00
       C71          C  0.4902114  0.4891980  0.5083319    0.00000       Uiso       1.00
       H29          H  0.5363259  0.4719694  0.5319257    0.00000       Uiso       1.00
       H30          H  0.5112994  0.5295981  0.5483334    0.00000       Uiso       1.00
       C72          C  0.5809595  0.4819925  0.5308382    0.00000       Uiso       1.00
       C73          C  0.5699046  0.4730579  0.5364360    0.00000       Uiso       1.00
       C74          C  0.5442052  0.4781262  0.5262520    0.00000       Uiso       1.00
       C75          C  0.5662563  0.4956797  0.5147949    0.00000       Uiso       1.00
       C76          C  0.5406767  0.5003319  0.5044797    0.00000       Uiso       1.00
       C77          C  0.5289217  0.4916673  0.5097877    0.00000       Uiso       1.00
       H31          H  0.5074486  0.4516678  0.4887100    0.00000       Uiso       1.00
       H32          H  0.5236254  0.4680847  0.4636671    0.00000       Uiso       1.00
       C78          C  0.4474556  0.5082527  0.5405086    0.00000       Uiso       1.00
       C79          C  0.4370559  0.4978306  0.5451147    0.00000       Uiso       1.00
       C80          C  0.4903786  0.4273876  0.4951714    0.00000       Uiso       1.00
       C81          C  0.4797147  0.4169788  0.4994628    0.00000       Uiso       1.00
       C82          C  0.4594893  0.5847974  0.4917442    0.00000       Uiso       1.00
       C83          C  0.4548816  0.6102260  0.5021624    0.00000       Uiso       1.00
       C84          C  0.5048257  0.5774061  0.5726091    0.00000       Uiso       1.00
       C85          C  0.5005283  0.6027732  0.5830153    0.00000       Uiso       1.00
       C86          C  0.5774084  0.5048304  0.5096303    0.00000       Uiso       1.00
       C87          C  0.6027738  0.5005368  0.5202982    0.00000       Uiso       1.00
       C88          C  0.4273890  0.4903637  0.4225948    0.00000       Uiso       1.00
       C89          C  0.4169835  0.4796992  0.3972291    0.00000       Uiso       1.00
       H33          H  0.4154581  0.5025682  0.4335345    0.00000       Uiso       1.00
       H34          H  0.3973075  0.4839771  0.3892480    0.00000       Uiso       1.00
       H35          H  0.4839998  0.3973015  0.4920510    0.00000       Uiso       1.00
       H36          H  0.5025906  0.4154565  0.4845139    0.00000       Uiso       1.00
       H37          H  0.4428675  0.5279665  0.5475841    0.00000       Uiso       1.00
       H38          H  0.4247513  0.5097656  0.5556591    0.00000       Uiso       1.00
       H39          H  0.5079349  0.6107594  0.6026919    0.00000       Uiso       1.00
       H40          H  0.5154834  0.5664703  0.5845431    0.00000       Uiso       1.00
       H41          H  0.4524148  0.5767483  0.4720331    0.00000       Uiso       1.00
       H42          H  0.4443373  0.6211445  0.4902312    0.00000       Uiso       1.00
       H43          H  0.6107561  0.5079474  0.5160158    0.00000       Uiso       1.00
       H44          H  0.5664703  0.5154862  0.4974165    0.00000       Uiso       1.00
       C90          C  0.8147029  0.7374571  0.9550719    0.00000       Uiso       1.00
       C91          C  0.8021556  0.7247477  0.9532743    0.00000       Uiso       1.00
       C92          C  0.8129343  0.6992641  0.9493454    0.00000       Uiso       1.00
       C93          C  0.8381622  0.7247477  0.9532743    0.00000       Uiso       1.00
       C94          C  0.8490415  0.6993463  0.9495024    0.00000       Uiso       1.00
       C95          C  0.8366452  0.6859378  0.9473150    0.00000       Uiso       1.00
       H45          H  0.8749711  0.4555847  0.0208714    0.00000       Uiso       1.00
       H46          H  0.8486822  0.7348384  0.9547609    0.00000       Uiso       1.00
       H47          H  0.7830315  0.7348384  0.9547609    0.00000       Uiso       1.00
       C96          C  0.8685204  0.4029045  0.0088890    0.00000       Uiso       1.00
       C97          C  0.8703180  0.4263636  0.0214363    0.00000       Uiso       1.00
       C98          C  0.8740902  0.4372433  0.0106869    0.00000       Uiso       1.00
       C99          C  0.8703177  0.3903570  0.9854298    0.00000       Uiso       1.00
      C100          C  0.8742469  0.4011359  0.9746543    0.00000       Uiso       1.00
      C101          C  0.8762779  0.4248462  0.9870704    0.00000       Uiso       1.00
       H48          H  0.8027242  0.4631730  0.7214876    0.00000       Uiso       1.00
       H49          H  0.8688311  0.3712330  0.9749100    0.00000       Uiso       1.00
       H50          H  0.8688311  0.4368834  0.0405602    0.00000       Uiso       1.00
      C102          C  0.1492550  0.4029047  0.0088889    0.00000       Uiso       1.00
      C103          C  0.1365451  0.3903571  0.9854296    0.00000       Uiso       1.00
      C104          C  0.1111436  0.4011054  0.9745515    0.00000       Uiso       1.00
      C105          C  0.1365454  0.4263638  0.0214362    0.00000       Uiso       1.00
      C106          C  0.1110615  0.4371380  0.0106595    0.00000       Uiso       1.00
      C107          C  0.0977347  0.4247206  0.9869492    0.00000       Uiso       1.00
       H51          H  0.8673833  0.6903083  0.9486226    0.00000       Uiso       1.00
       H52          H  0.1466360  0.4368835  0.0405601    0.00000       Uiso       1.00
       H53          H  0.1466360  0.3712332  0.9749098    0.00000       Uiso       1.00
      C108          C  0.8147056  0.4567246  0.6743395    0.00000       Uiso       1.00
      C109          C  0.8381647  0.4585221  0.6870489    0.00000       Uiso       1.00
      C110          C  0.8489405  0.4624506  0.7125322    0.00000       Uiso       1.00
      C111          C  0.8021581  0.4585221  0.6870489    0.00000       Uiso       1.00
      C112          C  0.8129083  0.4622929  0.7124498    0.00000       Uiso       1.00
      C113          C  0.8365254  0.4644800  0.7258579    0.00000       Uiso       1.00
       H54          H  0.1021040  0.3909206  0.9562112    0.00000       Uiso       1.00
      C114          C  0.9117957  0.4999969  0.9117996    0.00000       Uiso       1.00
       H55          H  0.7830341  0.4570356  0.6769582    0.00000       Uiso       1.00
       H56          H  0.8486847  0.4570356  0.6769582    0.00000       Uiso       1.00
        N5          N  0.7982793  0.6862378  0.9467020    0.00000       Uiso       1.00
        O9          O  0.8069586  0.6644862  0.9433320    0.00000       Uiso       1.00
       O10          O  0.7778583  0.6975487  0.9479539    0.00000       Uiso       1.00
        N6          N  0.8739768  0.4650973  0.7255586    0.00000       Uiso       1.00
       O11          O  0.8836795  0.4684670  0.7473099    0.00000       Uiso       1.00
       O12          O  0.8843373  0.4638485  0.7142479    0.00000       Uiso       1.00
        N7          N  0.8768921  0.3864783  0.9496173    0.00000       Uiso       1.00
       O13          O  0.8802624  0.3951556  0.9399133    0.00000       Uiso       1.00
       O14          O  0.8756422  0.3660567  0.9392580    0.00000       Uiso       1.00
        N8          N  0.0980406  0.4621733  0.0253229    0.00000       Uiso       1.00
       O15          O  0.0762886  0.4718792  0.0166506    0.00000       Uiso       1.00
       O16          O  0.1093563  0.4725290  0.0457442    0.00000       Uiso       1.00
      C115          C  0.8482913  0.6584150  0.9428250    0.00000       Uiso       1.00
      C116          C  0.8433762  0.6470128  0.9521500    0.00000       Uiso       1.00
      C117          C  0.8540588  0.6214340  0.9478624    0.00000       Uiso       1.00
      C118          C  0.8644816  0.6432090  0.9290973    0.00000       Uiso       1.00
      C119          C  0.8754452  0.6176668  0.9248806    0.00000       Uiso       1.00
      C120          C  0.8701967  0.6067095  0.9342403    0.00000       Uiso       1.00
       H57          H  0.8683158  0.6511176  0.9212494    0.00000       Uiso       1.00
       H58          H  0.8314484  0.6580651  0.9630731    0.00000       Uiso       1.00
      C121          C  0.8807688  0.4364927  0.9756865    0.00000       Uiso       1.00
      C122          C  0.8945056  0.4526744  0.9903991    0.00000       Uiso       1.00
      C123          C  0.8987221  0.4636392  0.9800385    0.00000       Uiso       1.00
      C124          C  0.8714339  0.4315888  0.9500465    0.00000       Uiso       1.00
      C125          C  0.8757213  0.4422727  0.9394407    0.00000       Uiso       1.00
      C126          C  0.8893526  0.4584004  0.9544746    0.00000       Uiso       1.00
       H59          H  0.8605019  0.4196706  0.9382444    0.00000       Uiso       1.00
       H60          H  0.9023618  0.4565012  0.0099900    0.00000       Uiso       1.00
      C127          C  0.0702122  0.4361027  0.9753028    0.00000       Uiso       1.00
      C128          C  0.0550086  0.4213872  0.9591119    0.00000       Uiso       1.00
      C129          C  0.0294640  0.4317480  0.9481452    0.00000       Uiso       1.00
      C130          C  0.0588096  0.4617437  0.9802155    0.00000       Uiso       1.00
      C131          C  0.0332326  0.4723494  0.9695330    0.00000       Uiso       1.00
      C132          C  0.0185067  0.4573159  0.9533948    0.00000       Uiso       1.00
       H61          H  0.0698547  0.4735468  0.9921393    0.00000       Uiso       1.00
       H62          H  0.0629257  0.4017936  0.9552823    0.00000       Uiso       1.00
      C133          C  0.8479114  0.4689699  0.7533799    0.00000       Uiso       1.00
      C134          C  0.8735524  0.4596369  0.7647809    0.00000       Uiso       1.00
      C135          C  0.8841605  0.4639266  0.7903596    0.00000       Uiso       1.00
      C136          C  0.8331998  0.4827045  0.7685863    0.00000       Uiso       1.00
      C137          C  0.8435614  0.4869204  0.7941282    0.00000       Uiso       1.00
      C138          C  0.8691255  0.4775556  0.8050845    0.00000       Uiso       1.00
       H63          H  0.8136100  0.4905567  0.7606771    0.00000       Uiso       1.00
       H64          H  0.8853469  0.4487053  0.7537246    0.00000       Uiso       1.00
      C139          C  0.9096344  0.4548668  0.8015714    0.00000       Uiso       1.00
      C140          C  0.9200538  0.4594759  0.8269995    0.00000       Uiso       1.00
      C141          C  0.8666545  0.4370764  0.9139664    0.00000       Uiso       1.00
      C142          C  0.8712605  0.4474784  0.9035469    0.00000       Uiso       1.00
       H65          H  0.8561014  0.4247803  0.9020303    0.00000       Uiso       1.00
       H66          H  0.8641759  0.4428998  0.8838351    0.00000       Uiso       1.00
       H67          H  0.9215662  0.4443153  0.7906548    0.00000       Uiso       1.00
       H68          H  0.9397650  0.4523969  0.8350521    0.00000       Uiso       1.00
      C143          C  0.8809608  0.5809540  0.9298059    0.00000       Uiso       1.00
      C144          C  0.8753594  0.5698999  0.9387361    0.00000       Uiso       1.00
      C145          C  0.8855436  0.5442026  0.9336707    0.00000       Uiso       1.00
      C146          C  0.8970037  0.5662512  0.9161200    0.00000       Uiso       1.00
      C147          C  0.9073151  0.5406723  0.9114656    0.00000       Uiso       1.00
      C148          C  0.9020089  0.5289187  0.9201324    0.00000       Uiso       1.00
       H69          H  0.9231085  0.5074222  0.9601339    0.00000       Uiso       1.00
       H70          H  0.9481277  0.5236233  0.9437439    0.00000       Uiso       1.00
      C149          C  0.8937852  0.4691648  0.9439170    0.00000       Uiso       1.00
      C150          C  0.9074798  0.4852005  0.9589424    0.00000       Uiso       1.00
      C151          C  0.9121335  0.4955137  0.9483295    0.00000       Uiso       1.00
      C152          C  0.8848442  0.4635736  0.9183311    0.00000       Uiso       1.00
      C153          C  0.8899116  0.4737569  0.9078836    0.00000       Uiso       1.00
      C154          C  0.9034616  0.4902119  0.9226028    0.00000       Uiso       1.00
       H71          H  0.8798596  0.5363268  0.9398199    0.00000       Uiso       1.00
       H72          H  0.8634597  0.5112836  0.8821975    0.00000       Uiso       1.00
      C155          C  0.9927536  0.4678771  0.9426327    0.00000       Uiso       1.00
      C156          C  0.9780501  0.4528510  0.9265869    0.00000       Uiso       1.00
      C157          C  0.9524707  0.4634661  0.9162755    0.00000       Uiso       1.00
      C158          C  0.9817005  0.4934648  0.9482364    0.00000       Uiso       1.00
      C159          C  0.9560024  0.5039143  0.9380550    0.00000       Uiso       1.00
      C160          C  0.9407179  0.4891943  0.9215870    0.00000       Uiso       1.00
       H73          H  0.9354260  0.4719664  0.8754727    0.00000       Uiso       1.00
       H74          H  0.9192311  0.5295950  0.9004988    0.00000       Uiso       1.00
      C161          C  0.8796822  0.4819898  0.8308395    0.00000       Uiso       1.00
      C162          C  0.9052693  0.4730552  0.8418943    0.00000       Uiso       1.00
      C163          C  0.9157164  0.4781232  0.8675935    0.00000       Uiso       1.00
      C164          C  0.8646550  0.4956767  0.8455427    0.00000       Uiso       1.00
      C165          C  0.8752670  0.5003286  0.8711222    0.00000       Uiso       1.00
      C166          C  0.9009945  0.4916640  0.8828771    0.00000       Uiso       1.00
       H75          H  0.9413894  0.4516640  0.9043501    0.00000       Uiso       1.00
       H76          H  0.8837532  0.4680808  0.8881737    0.00000       Uiso       1.00
      C167          C  0.9965951  0.5082489  0.9643421    0.00000       Uiso       1.00
      C168          C  0.0220225  0.4978267  0.9747417    0.00000       Uiso       1.00
      C169          C  0.9892007  0.4273838  0.9214199    0.00000       Uiso       1.00
      C170          C  0.0145644  0.4169749  0.9320837    0.00000       Uiso       1.00
      C171          C  0.8592528  0.5847932  0.9523090    0.00000       Uiso       1.00
      C172          C  0.8488500  0.6102218  0.9569165    0.00000       Uiso       1.00
      C173          C  0.9021723  0.5774031  0.9069723    0.00000       Uiso       1.00
      C174          C  0.8915085  0.6027703  0.9112694    0.00000       Uiso       1.00
      C175          C  0.8391877  0.5048275  0.8343907    0.00000       Uiso       1.00
      C176          C  0.8287840  0.5005342  0.8090255    0.00000       Uiso       1.00
      C177          C  0.9166377  0.4903587  0.9844096    0.00000       Uiso       1.00
      C178          C  0.9123421  0.4796938  0.9948152    0.00000       Uiso       1.00
       H77          H  0.9273036  0.5025631  0.9963403    0.00000       Uiso       1.00
       H78          H  0.9197598  0.4839717  0.0144913    0.00000       Uiso       1.00
       H79          H  0.0225449  0.3972976  0.9277986    0.00000       Uiso       1.00
       H80          H  0.9782626  0.4154527  0.9092082    0.00000       Uiso       1.00
       H81          H  0.9885447  0.5279627  0.9689301    0.00000       Uiso       1.00
       H82          H  0.0329364  0.5097617  0.9870461    0.00000       Uiso       1.00
       H83          H  0.8957924  0.6107567  0.9038628    0.00000       Uiso       1.00
       H84          H  0.9143844  0.5664675  0.8963145    0.00000       Uiso       1.00
       H85          H  0.8546654  0.5767439  0.9593836    0.00000       Uiso       1.00
       H86          H  0.8365445  0.6211402  0.9674609    0.00000       Uiso       1.00
       H87          H  0.8091088  0.5079448  0.8010433    0.00000       Uiso       1.00
       H88          H  0.8272562  0.5154831  0.8453289    0.00000       Uiso       1.00
      C179          C  0.8147062  0.7374604  0.5970943    0.00000       Uiso       1.00
      C180          C  0.8381653  0.7247508  0.6096416    0.00000       Uiso       1.00
      C181          C  0.8489413  0.6992673  0.5988629    0.00000       Uiso       1.00
      C182          C  0.8021590  0.7247511  0.5736352    0.00000       Uiso       1.00
      C183          C  0.8129092  0.6993499  0.5627561    0.00000       Uiso       1.00
      C184          C  0.8365266  0.6859412  0.5751523    0.00000       Uiso       1.00
       H89          H  0.1021104  0.4555889  0.5368268    0.00000       Uiso       1.00
       H90          H  0.7830350  0.7348419  0.5631154    0.00000       Uiso       1.00
       H91          H  0.8486851  0.7348414  0.6287655    0.00000       Uiso       1.00
      C185          C  0.1492589  0.4029084  0.5432775    0.00000       Uiso       1.00
      C186          C  0.1365494  0.4263678  0.5414799    0.00000       Uiso       1.00
      C187          C  0.1111483  0.4372472  0.5377077    0.00000       Uiso       1.00
      C188          C  0.1365495  0.3903611  0.5414799    0.00000       Uiso       1.00
      C189          C  0.1110659  0.4011399  0.5375507    0.00000       Uiso       1.00
      C190          C  0.0977406  0.4248504  0.5355197    0.00000       Uiso       1.00
       H92          H  0.8673867  0.4631740  0.6090750    0.00000       Uiso       1.00
       H93          H  0.1466402  0.3712370  0.5429665    0.00000       Uiso       1.00
       H94          H  0.1466402  0.4368876  0.5429665    0.00000       Uiso       1.00
      C191          C  0.8685266  0.4029111  0.2625451    0.00000       Uiso       1.00
      C192          C  0.8703241  0.3903636  0.2752545    0.00000       Uiso       1.00
      C193          C  0.8740990  0.4011115  0.3006558    0.00000       Uiso       1.00
      C194          C  0.8703241  0.4263703  0.2752545    0.00000       Uiso       1.00
      C195          C  0.8742570  0.4371441  0.3007383    0.00000       Uiso       1.00
      C196          C  0.8762901  0.4247268  0.3140645    0.00000       Uiso       1.00
       H95          H  0.8027259  0.6903119  0.5444145    0.00000       Uiso       1.00
       H96          H  0.8688375  0.4368903  0.2651638    0.00000       Uiso       1.00
       H97          H  0.8688375  0.3712396  0.2651638    0.00000       Uiso       1.00
      C197          C  0.8147063  0.4567253  0.5970942    0.00000       Uiso       1.00
      C198          C  0.8021591  0.4585232  0.5736352    0.00000       Uiso       1.00
      C199          C  0.8129380  0.4624519  0.5628593    0.00000       Uiso       1.00
      C200          C  0.8381654  0.4585229  0.6096416    0.00000       Uiso       1.00
      C201          C  0.8490452  0.4622940  0.5988912    0.00000       Uiso       1.00
      C202          C  0.8366490  0.4644814  0.5752741    0.00000       Uiso       1.00
       H98          H  0.8749833  0.3909265  0.3096956    0.00000       Uiso       1.00
      C203          C  0.9118026  0.5000007  0.5000029    0.00000       Uiso       1.00
       H99          H  0.8486851  0.4570361  0.6287655    0.00000       Uiso       1.00
      H100          H  0.7830351  0.4570366  0.5631154    0.00000       Uiso       1.00
        N9          N  0.8739792  0.6862408  0.6135178    0.00000       Uiso       1.00
       O17          O  0.8836816  0.6644893  0.6048388    0.00000       Uiso       1.00
       O18          O  0.8843409  0.6975516  0.6339387    0.00000       Uiso       1.00
       N10          N  0.7982814  0.4650991  0.5378230    0.00000       Uiso       1.00
       O19          O  0.8069603  0.4684690  0.5281203    0.00000       Uiso       1.00
       O20          O  0.7778593  0.4638502  0.5274628    0.00000       Uiso       1.00
       N11          N  0.0980415  0.3864821  0.5349059    0.00000       Uiso       1.00
       O21          O  0.0762900  0.3951594  0.5315356    0.00000       Uiso       1.00
       O22          O  0.1093539  0.3660604  0.5361558    0.00000       Uiso       1.00
       N12          N  0.8769058  0.4621794  0.3137589    0.00000       Uiso       1.00
       O23          O  0.8802794  0.4718851  0.3355108    0.00000       Uiso       1.00
       O24          O  0.8756556  0.4725355  0.3024432    0.00000       Uiso       1.00
      C204          C  0.8479134  0.6584185  0.5635064    0.00000       Uiso       1.00
      C205          C  0.8735557  0.6470163  0.5684214    0.00000       Uiso       1.00
      C206          C  0.8841643  0.6214376  0.5577388    0.00000       Uiso       1.00
      C207          C  0.8332015  0.6432126  0.5473163    0.00000       Uiso       1.00
      C208          C  0.8435637  0.6176704  0.5363528    0.00000       Uiso       1.00
      C209          C  0.8691291  0.6067131  0.5416012    0.00000       Uiso       1.00
      H101          H  0.8136111  0.6511210  0.5434822    0.00000       Uiso       1.00
      H102          H  0.8853540  0.6580687  0.5803490    0.00000       Uiso       1.00
      C210          C  0.0702195  0.4364968  0.5310289    0.00000       Uiso       1.00
      C211          C  0.0550135  0.4526787  0.5172921    0.00000       Uiso       1.00
      C212          C  0.0294717  0.4636436  0.5130757    0.00000       Uiso       1.00
      C213          C  0.0588185  0.4315926  0.5403640    0.00000       Uiso       1.00
      C214          C  0.0332414  0.4422764  0.5360767    0.00000       Uiso       1.00
      C215          C  0.0185163  0.4584044  0.5224454    0.00000       Uiso       1.00
      H103          H  0.0698664  0.4196742  0.5512959    0.00000       Uiso       1.00
      H104          H  0.0629221  0.4565055  0.5094364    0.00000       Uiso       1.00
      C216          C  0.8807840  0.4361085  0.3415869    0.00000       Uiso       1.00
      C217          C  0.8945123  0.4213927  0.3567905    0.00000       Uiso       1.00
      C218          C  0.8987292  0.4317531  0.3823349    0.00000       Uiso       1.00
      C219          C  0.8714584  0.4617494  0.3529894    0.00000       Uiso       1.00
      C220          C  0.8757468  0.4723548  0.3785662    0.00000       Uiso       1.00
      C221          C  0.8893681  0.4573210  0.3932921    0.00000       Uiso       1.00
      H105          H  0.8605338  0.4735527  0.3419443    0.00000       Uiso       1.00
      H106          H  0.9023592  0.4017991  0.3488735    0.00000       Uiso       1.00
      C222          C  0.8482951  0.4689716  0.5638880    0.00000       Uiso       1.00
      C223          C  0.8433884  0.4596390  0.5382472    0.00000       Uiso       1.00
      C224          C  0.8540689  0.4639290  0.5276389    0.00000       Uiso       1.00
      C225          C  0.8644782  0.4827062  0.5785994    0.00000       Uiso       1.00
      C226          C  0.8754425  0.4869225  0.5682376    0.00000       Uiso       1.00
      C227          C  0.8701996  0.4775580  0.5426736    0.00000       Uiso       1.00
      H107          H  0.8683065  0.4905582  0.5981891    0.00000       Uiso       1.00
      H108          H  0.8314692  0.4487074  0.5264529    0.00000       Uiso       1.00
      C228          C  0.8488668  0.4548695  0.5021652    0.00000       Uiso       1.00
      C229          C  0.8592663  0.4594789  0.4917457    0.00000       Uiso       1.00
      C230          C  0.0220304  0.4370798  0.5451437    0.00000       Uiso       1.00
      C231          C  0.9966033  0.4474818  0.5405378    0.00000       Uiso       1.00
      H109          H  0.0329435  0.4247836  0.5556967    0.00000       Uiso       1.00
      H110          H  0.9885548  0.4429029  0.5476224    0.00000       Uiso       1.00
      H111          H  0.8365701  0.4443180  0.4902335    0.00000       Uiso       1.00
      H112          H  0.8546869  0.4524002  0.4720345    0.00000       Uiso       1.00
      C232          C  0.8796863  0.5809577  0.5308374    0.00000       Uiso       1.00
      C233          C  0.9052718  0.5699036  0.5364385    0.00000       Uiso       1.00
      C234          C  0.9157197  0.5442064  0.5262545    0.00000       Uiso       1.00
      C235          C  0.8646606  0.5662548  0.5147947    0.00000       Uiso       1.00
      C236          C  0.8752739  0.5406760  0.5044835    0.00000       Uiso       1.00
      C237          C  0.9010003  0.5289224  0.5097895    0.00000       Uiso       1.00
      H113          H  0.9413984  0.5074265  0.4886898    0.00000       Uiso       1.00
      H114          H  0.8837885  0.5236278  0.4636708    0.00000       Uiso       1.00
      C238          C  0.9927620  0.4691688  0.5180129    0.00000       Uiso       1.00
      C239          C  0.9780573  0.4852046  0.5043183    0.00000       Uiso       1.00
      C240          C  0.9524775  0.4955178  0.4996647    0.00000       Uiso       1.00
      C241          C  0.9817086  0.4635772  0.5269541    0.00000       Uiso       1.00
      C242          C  0.9560105  0.4737605  0.5218868    0.00000       Uiso       1.00
      C243          C  0.9407248  0.4902157  0.5083368    0.00000       Uiso       1.00
      H115          H  0.9354286  0.5363305  0.5319384    0.00000       Uiso       1.00
      H116          H  0.9192497  0.5112866  0.5483387    0.00000       Uiso       1.00
      C244          C  0.8937981  0.4678818  0.4190454    0.00000       Uiso       1.00
      C245          C  0.9074819  0.4528555  0.4337489    0.00000       Uiso       1.00
      C246          C  0.9121346  0.4634703  0.4593282    0.00000       Uiso       1.00
      C247          C  0.8848670  0.4934695  0.4300983    0.00000       Uiso       1.00
      C248          C  0.8899340  0.5039187  0.4557963    0.00000       Uiso       1.00
      C249          C  0.9034706  0.4891984  0.4710808    0.00000       Uiso       1.00
      H117          H  0.8798764  0.4719700  0.4763731    0.00000       Uiso       1.00
      H118          H  0.8634685  0.5295987  0.4925676    0.00000       Uiso       1.00
      C250          C  0.8809635  0.4819925  0.5321167    0.00000       Uiso       1.00
      C251          C  0.8753659  0.4730582  0.5065298    0.00000       Uiso       1.00
      C252          C  0.8855501  0.4781266  0.4960826    0.00000       Uiso       1.00
      C253          C  0.8970068  0.4956795  0.5471437    0.00000       Uiso       1.00
      C254          C  0.9073222  0.5003317  0.5365316    0.00000       Uiso       1.00
      C255          C  0.9020144  0.4916674  0.5108042    0.00000       Uiso       1.00
      H119          H  0.9230927  0.4516680  0.4704095    0.00000       Uiso       1.00
      H120          H  0.9481353  0.4680841  0.5280452    0.00000       Uiso       1.00
      C256          C  0.8712941  0.5082539  0.4152038    0.00000       Uiso       1.00
      C257          C  0.8666881  0.4978320  0.3897761    0.00000       Uiso       1.00
      C258          C  0.9166316  0.4273883  0.4225984    0.00000       Uiso       1.00
      C259          C  0.9123405  0.4169798  0.3972346    0.00000       Uiso       1.00
      C260          C  0.9200577  0.5847968  0.5525449    0.00000       Uiso       1.00
      C261          C  0.9096393  0.6102254  0.5629475    0.00000       Uiso       1.00
      C262          C  0.8391925  0.5774067  0.5096262    0.00000       Uiso       1.00
      C263          C  0.8287861  0.6027738  0.5202898    0.00000       Uiso       1.00
      C264          C  0.9021712  0.5048299  0.5726109    0.00000       Uiso       1.00
      C265          C  0.8915032  0.5005363  0.5830147    0.00000       Uiso       1.00
      C266          C  0.9892082  0.4903632  0.4951602    0.00000       Uiso       1.00
      C267          C  0.0145738  0.4796984  0.4994556    0.00000       Uiso       1.00
      H121          H  0.9782685  0.5025678  0.4844943    0.00000       Uiso       1.00
      H122          H  0.0225551  0.4839762  0.4920386    0.00000       Uiso       1.00
      H123          H  0.9197524  0.3973025  0.3892542    0.00000       Uiso       1.00
      H124          H  0.9272891  0.4154570  0.4335366    0.00000       Uiso       1.00
      H125          H  0.8642184  0.5279677  0.4232540    0.00000       Uiso       1.00
      H126          H  0.8561437  0.5097672  0.3788623    0.00000       Uiso       1.00
      H127          H  0.8091093  0.6107602  0.5160062    0.00000       Uiso       1.00
      H128          H  0.8272584  0.5664711  0.4974142    0.00000       Uiso       1.00
      H129          H  0.9397690  0.5767476  0.5571322    0.00000       Uiso       1.00
      H130          H  0.9215705  0.6211439  0.5752528    0.00000       Uiso       1.00
      H131          H  0.8957854  0.5079466  0.6026898    0.00000       Uiso       1.00
      H132          H  0.9143850  0.5154855  0.5845422    0.00000       Uiso       1.00
      C268          C  0.7374603  0.8147063  0.5970943    0.00000       Uiso       1.00
      C269          C  0.7247510  0.8021591  0.5736353    0.00000       Uiso       1.00
      C270          C  0.6992676  0.8129379  0.5628595    0.00000       Uiso       1.00
      C271          C  0.7247507  0.8381655  0.6096417    0.00000       Uiso       1.00
      C272          C  0.6993495  0.8490449  0.5988916    0.00000       Uiso       1.00
      C273          C  0.6859411  0.8366487  0.5752743    0.00000       Uiso       1.00
      H133          H  0.4555908  0.8749769  0.3096930    0.00000       Uiso       1.00
      H134          H  0.7348413  0.8486852  0.6287655    0.00000       Uiso       1.00
      H135          H  0.7348419  0.7830352  0.5631155    0.00000       Uiso       1.00
      C274          C  0.4029109  0.8685266  0.2625448    0.00000       Uiso       1.00
      C275          C  0.4263700  0.8703241  0.2752542    0.00000       Uiso       1.00
      C276          C  0.4372493  0.8740960  0.3006552    0.00000       Uiso       1.00
      C277          C  0.3903634  0.8703241  0.2752542    0.00000       Uiso       1.00
      C278          C  0.4011419  0.8742531  0.3007376    0.00000       Uiso       1.00
      C279          C  0.4248523  0.8762839  0.3140627    0.00000       Uiso       1.00
      H136          H  0.4631746  0.8027259  0.5444142    0.00000       Uiso       1.00
      H137          H  0.3712394  0.8688376  0.2651635    0.00000       Uiso       1.00
      H138          H  0.4368901  0.8688376  0.2651635    0.00000       Uiso       1.00
      C280          C  0.4029087  0.1492588  0.5432775    0.00000       Uiso       1.00
      C281          C  0.3903612  0.1365493  0.5414799    0.00000       Uiso       1.00
      C282          C  0.4011095  0.1111477  0.5377047    0.00000       Uiso       1.00
      C283          C  0.4263679  0.1365493  0.5414799    0.00000       Uiso       1.00
      C284          C  0.4371420  0.1110653  0.5375468    0.00000       Uiso       1.00
      C285          C  0.4247248  0.0977390  0.5355135    0.00000       Uiso       1.00
      H139          H  0.6903113  0.8673865  0.6090750    0.00000       Uiso       1.00
      H140          H  0.4368878  0.1466401  0.5429665    0.00000       Uiso       1.00
      H141          H  0.3712372  0.1466401  0.5429665    0.00000       Uiso       1.00
      C286          C  0.4567253  0.8147064  0.5970943    0.00000       Uiso       1.00
      C287          C  0.4585228  0.8381655  0.6096416    0.00000       Uiso       1.00
      C288          C  0.4624516  0.8489416  0.5988629    0.00000       Uiso       1.00
      C289          C  0.4585231  0.8021591  0.5736353    0.00000       Uiso       1.00
      C290          C  0.4622943  0.8129097  0.5627556    0.00000       Uiso       1.00
      C291          C  0.4644813  0.8365269  0.5751520    0.00000       Uiso       1.00
      H142          H  0.3909245  0.1021079  0.5368204    0.00000       Uiso       1.00
      C292          C  0.5000006  0.9117995  0.4999997    0.00000       Uiso       1.00
      H143          H  0.4570366  0.7830352  0.5631154    0.00000       Uiso       1.00
      H144          H  0.4570360  0.8486852  0.6287655    0.00000       Uiso       1.00
       N13          N  0.6862414  0.7982831  0.5378218    0.00000       Uiso       1.00
       O25          O  0.6644899  0.8069624  0.5281194    0.00000       Uiso       1.00
       O26          O  0.6975525  0.7778623  0.5274599    0.00000       Uiso       1.00
       N14          N  0.4650983  0.8739779  0.6135196    0.00000       Uiso       1.00
       O27          O  0.4684682  0.8836809  0.6048408    0.00000       Uiso       1.00
       O28          O  0.4638491  0.8843381  0.6339415    0.00000       Uiso       1.00
       N15          N  0.3864840  0.8768979  0.3137618    0.00000       Uiso       1.00
       O29          O  0.3951610  0.8802680  0.3355132    0.00000       Uiso       1.00
       O30          O  0.3660624  0.8756480  0.3024496    0.00000       Uiso       1.00
       N16          N  0.4621775  0.0980446  0.5348979    0.00000       Uiso       1.00
       O31          O  0.4718834  0.0762925  0.5315241    0.00000       Uiso       1.00
       O32          O  0.4725334  0.1093604  0.5361481    0.00000       Uiso       1.00
      C293          C  0.6584184  0.8482948  0.5638877    0.00000       Uiso       1.00
      C294          C  0.6470165  0.8433800  0.5382456    0.00000       Uiso       1.00
      C295          C  0.6214378  0.8540627  0.5276372    0.00000       Uiso       1.00
      C296          C  0.6432122  0.8644850  0.5785996    0.00000       Uiso       1.00
      C297          C  0.6176701  0.8754486  0.5682377    0.00000       Uiso       1.00
      C298          C  0.6067130  0.8702004  0.5426724    0.00000       Uiso       1.00
      H145          H  0.6511204  0.8683189  0.5981899    0.00000       Uiso       1.00
      H146          H  0.6580690  0.8314524  0.5264474    0.00000       Uiso       1.00
      C299          C  0.4364984  0.8807746  0.3415837    0.00000       Uiso       1.00
      C300          C  0.4526801  0.8945114  0.3567896    0.00000       Uiso       1.00
      C301          C  0.4636446  0.8987276  0.3823313    0.00000       Uiso       1.00
      C302          C  0.4315942  0.8714393  0.3529845    0.00000       Uiso       1.00
      C303          C  0.4422777  0.8757265  0.3785614    0.00000       Uiso       1.00
      C304          C  0.4584055  0.8893577  0.3932865    0.00000       Uiso       1.00
      H147          H  0.4196760  0.8605074  0.3419365    0.00000       Uiso       1.00
      H148          H  0.4565069  0.9023672  0.3488812    0.00000       Uiso       1.00
      C305          C  0.4361069  0.0702164  0.5310194    0.00000       Uiso       1.00
      C306          C  0.4213913  0.0550128  0.5172911    0.00000       Uiso       1.00
      C307          C  0.4317520  0.0294681  0.5130740    0.00000       Uiso       1.00
      C308          C  0.4617478  0.0588137  0.5403449    0.00000       Uiso       1.00
      C309          C  0.4723534  0.0332367  0.5360562    0.00000       Uiso       1.00
      C310          C  0.4573199  0.0185108  0.5224350    0.00000       Uiso       1.00
      H149          H  0.4735509  0.0698588  0.5512694    0.00000       Uiso       1.00
      H150          H  0.4017977  0.0629299  0.5094443    0.00000       Uiso       1.00
      C311          C  0.4689716  0.8479132  0.5635061    0.00000       Uiso       1.00
      C312          C  0.4596386  0.8735542  0.5684130    0.00000       Uiso       1.00
      C313          C  0.4639286  0.8841627  0.5577326    0.00000       Uiso       1.00
      C314          C  0.4827065  0.8332018  0.5473229    0.00000       Uiso       1.00
      C315          C  0.4869227  0.8435638  0.5363588    0.00000       Uiso       1.00
      C316          C  0.4775580  0.8691279  0.5416020    0.00000       Uiso       1.00
      H151          H  0.4905586  0.8136120  0.5434945    0.00000       Uiso       1.00
      H152          H  0.4487068  0.8853485  0.5803321    0.00000       Uiso       1.00
      C317          C  0.4548689  0.9096366  0.5629349    0.00000       Uiso       1.00
      C318          C  0.4594783  0.9200563  0.5525355    0.00000       Uiso       1.00
      C319          C  0.4370811  0.8666593  0.3897722    0.00000       Uiso       1.00
      C320          C  0.4474829  0.8712649  0.4151994    0.00000       Uiso       1.00
      H153          H  0.4247851  0.8561062  0.3788591    0.00000       Uiso       1.00
      H154          H  0.4429039  0.8641801  0.4232478    0.00000       Uiso       1.00
      H155          H  0.4443171  0.9215683  0.5752316    0.00000       Uiso       1.00
      H156          H  0.4523994  0.9397675  0.5571152    0.00000       Uiso       1.00
      C321          C  0.5809575  0.8809645  0.5321154    0.00000       Uiso       1.00
      C322          C  0.5699038  0.8753634  0.5065301    0.00000       Uiso       1.00
      C323          C  0.5442066  0.8855476  0.4960824    0.00000       Uiso       1.00
      C324          C  0.5662544  0.8970071  0.5471411    0.00000       Uiso       1.00
      C325          C  0.5406756  0.9073186  0.5365281    0.00000       Uiso       1.00
      C326          C  0.5289223  0.9020128  0.5108019    0.00000       Uiso       1.00
      H157          H  0.5074266  0.9231130  0.4704042    0.00000       Uiso       1.00
      H158          H  0.5236270  0.9481316  0.5280139    0.00000       Uiso       1.00
      C327          C  0.4691696  0.8937900  0.4190408    0.00000       Uiso       1.00
      C328          C  0.4852052  0.9074846  0.4337456    0.00000       Uiso       1.00
      C329          C  0.4955181  0.9121380  0.4593251    0.00000       Uiso       1.00
      C330          C  0.4635780  0.8848487  0.4300940    0.00000       Uiso       1.00
      C331          C  0.4737610  0.8899158  0.4557920    0.00000       Uiso       1.00
      C332          C  0.4902160  0.9034657  0.4710777    0.00000       Uiso       1.00
      H159          H  0.5363309  0.8798638  0.4763736    0.00000       Uiso       1.00
      H160          H  0.5112870  0.8634633  0.4925522    0.00000       Uiso       1.00
      C333          C  0.4678808  0.9927576  0.5180048    0.00000       Uiso       1.00
      C334          C  0.4528547  0.9780540  0.5043209    0.00000       Uiso       1.00
      C335          C  0.4634698  0.9524745  0.4996681    0.00000       Uiso       1.00
      C336          C  0.4934686  0.9817045  0.5269357    0.00000       Uiso       1.00
      C337          C  0.5039180  0.9560063  0.5218685    0.00000       Uiso       1.00
      C338          C  0.4891980  0.9407218  0.5083319    0.00000       Uiso       1.00
      H161          H  0.4719694  0.9354292  0.5319258    0.00000       Uiso       1.00
      H162          H  0.5295981  0.9192344  0.5483334    0.00000       Uiso       1.00
      C339          C  0.4819925  0.8796851  0.5308382    0.00000       Uiso       1.00
      C340          C  0.4730579  0.9052721  0.5364360    0.00000       Uiso       1.00
      C341          C  0.4781262  0.9157195  0.5262520    0.00000       Uiso       1.00
      C342          C  0.4956797  0.8646581  0.5147950    0.00000       Uiso       1.00
      C343          C  0.5003319  0.8752704  0.5044797    0.00000       Uiso       1.00
      C344          C  0.4916673  0.9009979  0.5097877    0.00000       Uiso       1.00
      H163          H  0.4516677  0.9413932  0.4887100    0.00000       Uiso       1.00
      H164          H  0.4680846  0.8837572  0.4636671    0.00000       Uiso       1.00
      C345          C  0.5082527  0.9965990  0.5405086    0.00000       Uiso       1.00
      C346          C  0.4978307  0.0220266  0.5451148    0.00000       Uiso       1.00
      C347          C  0.4273875  0.9892047  0.4951714    0.00000       Uiso       1.00
      C348          C  0.4169789  0.0145685  0.4994628    0.00000       Uiso       1.00
      C349          C  0.5847973  0.8592570  0.4917442    0.00000       Uiso       1.00
      C350          C  0.6102259  0.8488542  0.5021625    0.00000       Uiso       1.00
      C351          C  0.5774060  0.9021755  0.5726091    0.00000       Uiso       1.00
      C352          C  0.6027732  0.8915116  0.5830153    0.00000       Uiso       1.00
      C353          C  0.5048304  0.8391907  0.5096304    0.00000       Uiso       1.00
      C354          C  0.5005368  0.8287867  0.5202982    0.00000       Uiso       1.00
      C355          C  0.4903637  0.9166429  0.4225948    0.00000       Uiso       1.00
      C356          C  0.4796992  0.9123476  0.3972292    0.00000       Uiso       1.00
      H165          H  0.5025682  0.9273088  0.4335345    0.00000       Uiso       1.00
      H166          H  0.4839770  0.9197648  0.3892480    0.00000       Uiso       1.00
      H167          H  0.3973016  0.0225490  0.4920510    0.00000       Uiso       1.00
      H168          H  0.4154565  0.9782665  0.4845139    0.00000       Uiso       1.00
      H169          H  0.5279664  0.9885486  0.5475841    0.00000       Uiso       1.00
      H170          H  0.5097657  0.0329404  0.5556591    0.00000       Uiso       1.00
      H171          H  0.6107594  0.8957952  0.6026919    0.00000       Uiso       1.00
      H172          H  0.5664702  0.9143873  0.5845431    0.00000       Uiso       1.00
      H173          H  0.5767483  0.8546699  0.4720331    0.00000       Uiso       1.00
      H174          H  0.6211445  0.8365489  0.4902312    0.00000       Uiso       1.00
      H175          H  0.5079473  0.8091115  0.5160158    0.00000       Uiso       1.00
      H176          H  0.5154862  0.8272594  0.4974166    0.00000       Uiso       1.00
      C357          C  0.7374571  0.8147030  0.9550720    0.00000       Uiso       1.00
      C358          C  0.7247476  0.8381623  0.9532744    0.00000       Uiso       1.00
      C359          C  0.6992641  0.8489382  0.9493455    0.00000       Uiso       1.00
      C360          C  0.7247476  0.8021557  0.9532744    0.00000       Uiso       1.00
      C361          C  0.6993463  0.8129058  0.9495025    0.00000       Uiso       1.00
      C362          C  0.6859378  0.8365233  0.9473150    0.00000       Uiso       1.00
      H177          H  0.4555852  0.1021065  0.0208714    0.00000       Uiso       1.00
      H178          H  0.7348384  0.7830316  0.9547610    0.00000       Uiso       1.00
      H179          H  0.7348384  0.8486822  0.9547610    0.00000       Uiso       1.00
      C363          C  0.4029050  0.1492552  0.0088891    0.00000       Uiso       1.00
      C364          C  0.4263641  0.1365456  0.0214364    0.00000       Uiso       1.00
      C365          C  0.4372437  0.1111445  0.0106869    0.00000       Uiso       1.00
      C366          C  0.3903571  0.1365456  0.9854298    0.00000       Uiso       1.00
      C367          C  0.4011360  0.1110620  0.9746543    0.00000       Uiso       1.00
      C368          C  0.4248464  0.0977367  0.9870705    0.00000       Uiso       1.00
      H180          H  0.4631730  0.8673857  0.7214877    0.00000       Uiso       1.00
      H181          H  0.3712331  0.1466364  0.9749100    0.00000       Uiso       1.00
      H182          H  0.4368839  0.1466362  0.0405602    0.00000       Uiso       1.00
      C369          C  0.4029050  0.8685202  0.0088889    0.00000       Uiso       1.00
      C370          C  0.3903571  0.8703177  0.9854297    0.00000       Uiso       1.00
      C371          C  0.4011054  0.8740929  0.9745516    0.00000       Uiso       1.00
      C372          C  0.4263641  0.8703177  0.0214362    0.00000       Uiso       1.00
      C373          C  0.4371383  0.8742509  0.0106595    0.00000       Uiso       1.00
      C374          C  0.4247206  0.8762841  0.9869492    0.00000       Uiso       1.00
      H183          H  0.6903083  0.8027223  0.9486226    0.00000       Uiso       1.00
      H184          H  0.4368838  0.8688309  0.0405601    0.00000       Uiso       1.00
      H185          H  0.3712332  0.8688312  0.9749100    0.00000       Uiso       1.00
      C375          C  0.4567246  0.8147056  0.6743396    0.00000       Uiso       1.00
      C376          C  0.4585221  0.8021581  0.6870490    0.00000       Uiso       1.00
      C377          C  0.4624505  0.8129367  0.7125322    0.00000       Uiso       1.00
      C378          C  0.4585221  0.8381647  0.6870490    0.00000       Uiso       1.00
      C379          C  0.4622929  0.8490442  0.7124498    0.00000       Uiso       1.00
      C380          C  0.4644800  0.8366477  0.7258579    0.00000       Uiso       1.00
      H186          H  0.3909206  0.8749775  0.9562113    0.00000       Uiso       1.00
      C381          C  0.4999969  0.9117990  0.9117996    0.00000       Uiso       1.00
      H187          H  0.4570356  0.8486847  0.6769583    0.00000       Uiso       1.00
      H188          H  0.4570356  0.7830341  0.6769583    0.00000       Uiso       1.00
       N17          N  0.6862377  0.8739762  0.9467020    0.00000       Uiso       1.00
       O33          O  0.6644862  0.8836786  0.9433320    0.00000       Uiso       1.00
       O34          O  0.6975487  0.8843382  0.9479539    0.00000       Uiso       1.00
       N18          N  0.4650973  0.7982797  0.7255586    0.00000       Uiso       1.00
       O35          O  0.4684670  0.8069584  0.7473100    0.00000       Uiso       1.00
       O36          O  0.4638484  0.7778577  0.7142479    0.00000       Uiso       1.00
       N19          N  0.3864785  0.0980379  0.9496173    0.00000       Uiso       1.00
       O37          O  0.3951558  0.0762864  0.9399133    0.00000       Uiso       1.00
       O38          O  0.3660569  0.1093504  0.9392580    0.00000       Uiso       1.00
       N20          N  0.4621735  0.8768998  0.0253230    0.00000       Uiso       1.00
       O39          O  0.4718795  0.8802736  0.0166506    0.00000       Uiso       1.00
       O40          O  0.4725293  0.8756493  0.0457442    0.00000       Uiso       1.00
      C382          C  0.6584150  0.8479101  0.9428250    0.00000       Uiso       1.00
      C383          C  0.6470128  0.8735523  0.9521501    0.00000       Uiso       1.00
      C384          C  0.6214341  0.8841608  0.9478625    0.00000       Uiso       1.00
      C385          C  0.6432090  0.8331982  0.9290974    0.00000       Uiso       1.00
      C386          C  0.6176668  0.8435603  0.9248807    0.00000       Uiso       1.00
      C387          C  0.6067095  0.8691256  0.9342403    0.00000       Uiso       1.00
      H189          H  0.6511176  0.8136078  0.9212494    0.00000       Uiso       1.00
      H190          H  0.6580651  0.8853505  0.9630731    0.00000       Uiso       1.00
      C388          C  0.4364929  0.0702156  0.9756866    0.00000       Uiso       1.00
      C389          C  0.4526745  0.0550093  0.9903991    0.00000       Uiso       1.00
      C390          C  0.4636394  0.0294676  0.9800385    0.00000       Uiso       1.00
      C391          C  0.4315890  0.0588149  0.9500465    0.00000       Uiso       1.00
      C392          C  0.4422728  0.0332379  0.9394407    0.00000       Uiso       1.00
      C393          C  0.4584006  0.0185125  0.9544747    0.00000       Uiso       1.00
      H191          H  0.4196708  0.0698631  0.9382445    0.00000       Uiso       1.00
      H192          H  0.4565017  0.0629180  0.0099900    0.00000       Uiso       1.00
      C394          C  0.4361027  0.8807784  0.9753029    0.00000       Uiso       1.00
      C395          C  0.4213872  0.8945069  0.9591120    0.00000       Uiso       1.00
      C396          C  0.4317480  0.8987241  0.9481453    0.00000       Uiso       1.00
      C397          C  0.4617437  0.8714527  0.9802156    0.00000       Uiso       1.00
      C398          C  0.4723494  0.8757415  0.9695330    0.00000       Uiso       1.00
      C399          C  0.4573159  0.8893630  0.9533948    0.00000       Uiso       1.00
      H193          H  0.4735467  0.8605280  0.9921393    0.00000       Uiso       1.00
      H194          H  0.4017936  0.9023538  0.9552824    0.00000       Uiso       1.00
      C400          C  0.4689699  0.8482935  0.7533800    0.00000       Uiso       1.00
      C401          C  0.4596369  0.8433863  0.7647811    0.00000       Uiso       1.00
      C402          C  0.4639265  0.8540667  0.7903596    0.00000       Uiso       1.00
      C403          C  0.4827045  0.8644766  0.7685863    0.00000       Uiso       1.00
      C404          C  0.4869204  0.8754405  0.7941283    0.00000       Uiso       1.00
      C405          C  0.4775555  0.8701972  0.8050845    0.00000       Uiso       1.00
      H195          H  0.4905567  0.8683051  0.7606771    0.00000       Uiso       1.00
      H196          H  0.4487053  0.8314672  0.7537246    0.00000       Uiso       1.00
      C406          C  0.4548667  0.8488642  0.8015714    0.00000       Uiso       1.00
      C407          C  0.4594759  0.8592634  0.8269996    0.00000       Uiso       1.00
      C408          C  0.4370765  0.0220271  0.9139664    0.00000       Uiso       1.00
      C409          C  0.4474784  0.9966002  0.9035469    0.00000       Uiso       1.00
      H197          H  0.4247805  0.0329405  0.9020304    0.00000       Uiso       1.00
      H198          H  0.4428998  0.9885519  0.8838351    0.00000       Uiso       1.00
      H199          H  0.4443153  0.8365675  0.7906548    0.00000       Uiso       1.00
      H200          H  0.4523969  0.8546836  0.8350522    0.00000       Uiso       1.00
      C410          C  0.5809540  0.8796828  0.9298059    0.00000       Uiso       1.00
      C411          C  0.5698999  0.9052682  0.9387361    0.00000       Uiso       1.00
      C412          C  0.5442026  0.9157161  0.9336708    0.00000       Uiso       1.00
      C413          C  0.5662512  0.8646570  0.9161201    0.00000       Uiso       1.00
      C414          C  0.5406722  0.8752702  0.9114656    0.00000       Uiso       1.00
      C415          C  0.5289187  0.9009966  0.9201325    0.00000       Uiso       1.00
      H201          H  0.5074221  0.9413942  0.9601339    0.00000       Uiso       1.00
      H202          H  0.5236233  0.8837842  0.9437439    0.00000       Uiso       1.00
      C416          C  0.4691648  0.9927583  0.9439170    0.00000       Uiso       1.00
      C417          C  0.4852004  0.9780532  0.9589424    0.00000       Uiso       1.00
      C418          C  0.4955137  0.9524735  0.9483295    0.00000       Uiso       1.00
      C419          C  0.4635736  0.9817052  0.9183312    0.00000       Uiso       1.00
      C420          C  0.4737569  0.9560070  0.9078836    0.00000       Uiso       1.00
      C421          C  0.4902118  0.9407211  0.9226028    0.00000       Uiso       1.00
      H203          H  0.5363268  0.9354250  0.9398199    0.00000       Uiso       1.00
      H204          H  0.5112836  0.9192467  0.8821976    0.00000       Uiso       1.00
      C422          C  0.4678771  0.8937933  0.9426327    0.00000       Uiso       1.00
      C423          C  0.4528510  0.9074775  0.9265869    0.00000       Uiso       1.00
      C424          C  0.4634661  0.9121305  0.9162755    0.00000       Uiso       1.00
      C425          C  0.4934648  0.8848624  0.9482365    0.00000       Uiso       1.00
      C426          C  0.5039142  0.8899297  0.9380550    0.00000       Uiso       1.00
      C427          C  0.4891943  0.9034665  0.9215871    0.00000       Uiso       1.00
      H205          H  0.4719663  0.8798729  0.8754727    0.00000       Uiso       1.00
      H206          H  0.5295949  0.8634649  0.9004988    0.00000       Uiso       1.00
      C428          C  0.4819898  0.8809609  0.8308396    0.00000       Uiso       1.00
      C429          C  0.4730552  0.8753630  0.8418943    0.00000       Uiso       1.00
      C430          C  0.4781232  0.8855467  0.8675936    0.00000       Uiso       1.00
      C431          C  0.4956767  0.8970041  0.8455428    0.00000       Uiso       1.00
      C432          C  0.5003286  0.9073192  0.8711222    0.00000       Uiso       1.00
      C433          C  0.4916639  0.9020111  0.8828771    0.00000       Uiso       1.00
      H207          H  0.4516640  0.9230887  0.9043501    0.00000       Uiso       1.00
      H208          H  0.4680808  0.9481320  0.8881738    0.00000       Uiso       1.00
      C434          C  0.5082489  0.8712891  0.9643422    0.00000       Uiso       1.00
      C435          C  0.4978267  0.8666829  0.9747417    0.00000       Uiso       1.00
      C436          C  0.4273837  0.9166272  0.9214200    0.00000       Uiso       1.00
      C437          C  0.4169749  0.9123357  0.9320838    0.00000       Uiso       1.00
      C438          C  0.5847932  0.9200541  0.9523090    0.00000       Uiso       1.00
      C439          C  0.6102218  0.9096357  0.9569165    0.00000       Uiso       1.00
      C440          C  0.5774031  0.8391889  0.9069723    0.00000       Uiso       1.00
      C441          C  0.6027703  0.8287826  0.9112695    0.00000       Uiso       1.00
      C442          C  0.5048275  0.9021689  0.8343908    0.00000       Uiso       1.00
      C443          C  0.5005341  0.8915011  0.8090256    0.00000       Uiso       1.00
      C444          C  0.4903587  0.9892038  0.9844096    0.00000       Uiso       1.00
      C445          C  0.4796940  0.0145694  0.9948152    0.00000       Uiso       1.00
      H209          H  0.5025631  0.9782640  0.9963403    0.00000       Uiso       1.00
      H210          H  0.4839722  0.0225508  0.0144914    0.00000       Uiso       1.00
      H211          H  0.3972976  0.9197475  0.9277987    0.00000       Uiso       1.00
      H212          H  0.4154526  0.9272849  0.9092082    0.00000       Uiso       1.00
      H213          H  0.5279627  0.8642136  0.9689302    0.00000       Uiso       1.00
      H214          H  0.5097617  0.8561383  0.9870461    0.00000       Uiso       1.00
      H215          H  0.6107567  0.8091059  0.9038628    0.00000       Uiso       1.00
      H216          H  0.5664675  0.8272549  0.8963146    0.00000       Uiso       1.00
      H217          H  0.5767439  0.9397654  0.9593837    0.00000       Uiso       1.00
      H218          H  0.6211402  0.9215670  0.9674609    0.00000       Uiso       1.00
      H219          H  0.5079448  0.8957837  0.8010433    0.00000       Uiso       1.00
      H220          H  0.5154831  0.9143827  0.8453289    0.00000       Uiso       1.00
      C446          C  0.8147054  0.8147057  0.6743395    0.00000       Uiso       1.00
      C447          C  0.8021579  0.8381648  0.6870489    0.00000       Uiso       1.00
      C448          C  0.8129364  0.8489404  0.7125322    0.00000       Uiso       1.00
      C449          C  0.8381646  0.8021581  0.6870489    0.00000       Uiso       1.00
      C450          C  0.8490436  0.8129081  0.7124499    0.00000       Uiso       1.00
      C451          C  0.8366471  0.8365253  0.7258583    0.00000       Uiso       1.00
      H221          H  0.8749710  0.1021068  0.9562090    0.00000       Uiso       1.00
      H222          H  0.8486845  0.7830341  0.6769581    0.00000       Uiso       1.00
      H223          H  0.7830339  0.8486848  0.6769581    0.00000       Uiso       1.00
      C452          C  0.8685204  0.1492552  0.0088890    0.00000       Uiso       1.00
      C453          C  0.8703177  0.1365456  0.9854298    0.00000       Uiso       1.00
      C454          C  0.8740899  0.1111445  0.9745504    0.00000       Uiso       1.00
      C455          C  0.8703179  0.1365456  0.0214363    0.00000       Uiso       1.00
      C456          C  0.8742473  0.1110621  0.0106576    0.00000       Uiso       1.00
      C457          C  0.8762779  0.0977367  0.9869471    0.00000       Uiso       1.00
      H224          H  0.8027221  0.8673837  0.9486232    0.00000       Uiso       1.00
      H225          H  0.8688312  0.1466362  0.0405602    0.00000       Uiso       1.00
      H226          H  0.8688312  0.1466365  0.9749100    0.00000       Uiso       1.00
      C458          C  0.1492549  0.8685203  0.0088889    0.00000       Uiso       1.00
      C459          C  0.1365453  0.8703178  0.0214362    0.00000       Uiso       1.00
      C460          C  0.1111438  0.8740931  0.0106881    0.00000       Uiso       1.00
      C461          C  0.1365450  0.8703178  0.9854296    0.00000       Uiso       1.00
      C462          C  0.1110611  0.8742510  0.9746557    0.00000       Uiso       1.00
      C463          C  0.0977346  0.8762842  0.9870728    0.00000       Uiso       1.00
      H227          H  0.8673853  0.8027244  0.7214879    0.00000       Uiso       1.00
      H228          H  0.1466359  0.8688313  0.9749098    0.00000       Uiso       1.00
      H229          H  0.1466359  0.8688310  0.0405601    0.00000       Uiso       1.00
      C464          C  0.8147029  0.8147031  0.9550719    0.00000       Uiso       1.00
      C465          C  0.8381622  0.8021557  0.9532743    0.00000       Uiso       1.00
      C466          C  0.8489383  0.8129346  0.9493458    0.00000       Uiso       1.00
      C467          C  0.8021556  0.8381624  0.9532743    0.00000       Uiso       1.00
      C468          C  0.8129060  0.8490421  0.9495033    0.00000       Uiso       1.00
      C469          C  0.8365234  0.8366457  0.9473161    0.00000       Uiso       1.00
      H230          H  0.1021039  0.8749774  0.0208730    0.00000       Uiso       1.00
      C470          C  0.9117956  0.9117990  0.9117979    0.00000       Uiso       1.00
      H231          H  0.7830315  0.8486822  0.9547609    0.00000       Uiso       1.00
      H232          H  0.8486821  0.7830316  0.9547609    0.00000       Uiso       1.00
       N21          N  0.7982813  0.8739783  0.7255584    0.00000       Uiso       1.00
       O41          O  0.8069602  0.8836805  0.7473097    0.00000       Uiso       1.00
       O42          O  0.7778603  0.8843403  0.7142476    0.00000       Uiso       1.00
       N22          N  0.8739747  0.7982777  0.9466988    0.00000       Uiso       1.00
       O43          O  0.8836777  0.8069566  0.9433290    0.00000       Uiso       1.00
       O44          O  0.8843351  0.7778556  0.9479478    0.00000       Uiso       1.00
       N23          N  0.8768920  0.0980376  0.0253153    0.00000       Uiso       1.00
       O45          O  0.8802624  0.0762861  0.0166381    0.00000       Uiso       1.00
       O46          O  0.8756419  0.1093498  0.0457368    0.00000       Uiso       1.00
       N24          N  0.0980406  0.8769002  0.9496205    0.00000       Uiso       1.00
       O47          O  0.0762886  0.8802741  0.9399148    0.00000       Uiso       1.00
       O48          O  0.1093565  0.8756500  0.9392647    0.00000       Uiso       1.00
      C471          C  0.8482929  0.8479118  0.7533810    0.00000       Uiso       1.00
      C472          C  0.8433778  0.8735540  0.7647829    0.00000       Uiso       1.00
      C473          C  0.8540602  0.8841623  0.7903615    0.00000       Uiso       1.00
      C474          C  0.8644830  0.8331997  0.7685869    0.00000       Uiso       1.00
      C475          C  0.8754464  0.8435615  0.7941289    0.00000       Uiso       1.00
      C476          C  0.8701978  0.8691269  0.8050861    0.00000       Uiso       1.00
      H233          H  0.8683172  0.8136092  0.7606785    0.00000       Uiso       1.00
      H234          H  0.8314502  0.8853526  0.7537307    0.00000       Uiso       1.00
      C477          C  0.8807688  0.0702156  0.9753009    0.00000       Uiso       1.00
      C478          C  0.8945059  0.0550097  0.9591192    0.00000       Uiso       1.00
      C479          C  0.8987225  0.0294679  0.9481546    0.00000       Uiso       1.00
      C480          C  0.8714336  0.0588147  0.9802050    0.00000       Uiso       1.00
      C481          C  0.8757211  0.0332377  0.9695213    0.00000       Uiso       1.00
      C482          C  0.8893527  0.0185126  0.9533936    0.00000       Uiso       1.00
      H235          H  0.8605014  0.0698626  0.9921231    0.00000       Uiso       1.00
      H236          H  0.9023617  0.0629182  0.9552926    0.00000       Uiso       1.00
      C483          C  0.0702121  0.8807784  0.9756909    0.00000       Uiso       1.00
      C484          C  0.0550082  0.8945067  0.9904065    0.00000       Uiso       1.00
      C485          C  0.0294636  0.8987240  0.9800459    0.00000       Uiso       1.00
      C486          C  0.0588097  0.8714531  0.9500501    0.00000       Uiso       1.00
      C487          C  0.0332328  0.8757419  0.9394447    0.00000       Uiso       1.00
      C488          C  0.0185066  0.8893631  0.9544781    0.00000       Uiso       1.00
      H237          H  0.0698551  0.8605285  0.9382470    0.00000       Uiso       1.00
      H238          H  0.0629257  0.9023538  0.0100001    0.00000       Uiso       1.00
      C489          C  0.8479096  0.8482918  0.9428260    0.00000       Uiso       1.00
      C490          C  0.8735506  0.8433847  0.9521589    0.00000       Uiso       1.00
      C491          C  0.8841590  0.8540652  0.9478690    0.00000       Uiso       1.00
      C492          C  0.8331982  0.8644751  0.9290914    0.00000       Uiso       1.00
      C493          C  0.8435601  0.8754393  0.9248754    0.00000       Uiso       1.00
      C494          C  0.8691242  0.8701961  0.9342400    0.00000       Uiso       1.00
      H239          H  0.8136085  0.8683037  0.9212394    0.00000       Uiso       1.00
      H240          H  0.8853449  0.8314654  0.9630904    0.00000       Uiso       1.00
      C495          C  0.9096328  0.8488628  0.9569287    0.00000       Uiso       1.00
      C496          C  0.9200525  0.8592623  0.9523193    0.00000       Uiso       1.00
      C497          C  0.8666540  0.0220266  0.9747178    0.00000       Uiso       1.00
      C498          C  0.8712598  0.9965996  0.9643160    0.00000       Uiso       1.00
      H241          H  0.8561007  0.0329398  0.9870138    0.00000       Uiso       1.00
      H242          H  0.8641750  0.9885511  0.9688947    0.00000       Uiso       1.00
      H243          H  0.9215646  0.8365659  0.9674801    0.00000       Uiso       1.00
      H244          H  0.9397637  0.8546826  0.9593982    0.00000       Uiso       1.00
      C499          C  0.8809615  0.8796837  0.8308413    0.00000       Uiso       1.00
      C500          C  0.8753602  0.9052691  0.8418952    0.00000       Uiso       1.00
      C501          C  0.8855441  0.9157167  0.8675923    0.00000       Uiso       1.00
      C502          C  0.8970042  0.8646577  0.8455442    0.00000       Uiso       1.00
      C503          C  0.9073154  0.8752707  0.8711229    0.00000       Uiso       1.00
      C504          C  0.9020091  0.9009970  0.8828763    0.00000       Uiso       1.00
      H245          H  0.9231088  0.9413948  0.9043723    0.00000       Uiso       1.00
      H246          H  0.9481282  0.8837848  0.8881714    0.00000       Uiso       1.00
      C505          C  0.8937851  0.9927583  0.9426293    0.00000       Uiso       1.00
      C506          C  0.9074799  0.9780536  0.9265938    0.00000       Uiso       1.00
      C507          C  0.9121337  0.9524739  0.9162807    0.00000       Uiso       1.00
      C508          C  0.8848438  0.9817050  0.9482207    0.00000       Uiso       1.00
      C509          C  0.8899112  0.9560068  0.9380376    0.00000       Uiso       1.00
      C510          C  0.9034615  0.9407212  0.9215827    0.00000       Uiso       1.00
      H247          H  0.8798600  0.9354256  0.8754680    0.00000       Uiso       1.00
      H248          H  0.8634594  0.9192467  0.9005116    0.00000       Uiso       1.00
      C511          C  0.9927536  0.8937934  0.9439172    0.00000       Uiso       1.00
      C512          C  0.9780497  0.9074773  0.9589432    0.00000       Uiso       1.00
      C513          C  0.9524704  0.9121303  0.9483283    0.00000       Uiso       1.00
      C514          C  0.9817008  0.8848627  0.9183296    0.00000       Uiso       1.00
      C515          C  0.9560026  0.8899301  0.9078803    0.00000       Uiso       1.00
      C516          C  0.9407178  0.9034666  0.9226003    0.00000       Uiso       1.00
      H249          H  0.9354253  0.8798724  0.9398285    0.00000       Uiso       1.00
      H250          H  0.9192312  0.8634651  0.8822002    0.00000       Uiso       1.00
      C517          C  0.8796813  0.8809600  0.9298056    0.00000       Uiso       1.00
      C518          C  0.9052684  0.8753621  0.9387400    0.00000       Uiso       1.00
      C519          C  0.9157157  0.8855462  0.9336718    0.00000       Uiso       1.00
      C520          C  0.8646543  0.8970035  0.9161186    0.00000       Uiso       1.00
      C521          C  0.8752666  0.9073189  0.9114665    0.00000       Uiso       1.00
      C522          C  0.9009940  0.9020108  0.9201311    0.00000       Uiso       1.00
      H251          H  0.9413888  0.9230884  0.9601305    0.00000       Uiso       1.00
      H252          H  0.8837526  0.9481316  0.9437138    0.00000       Uiso       1.00
      C523          C  0.9965955  0.8712898  0.9035455    0.00000       Uiso       1.00
      C524          C  0.0220230  0.8666835  0.9139675    0.00000       Uiso       1.00
      C525          C  0.9892001  0.9166266  0.9844103    0.00000       Uiso       1.00
      C526          C  0.0145638  0.9123352  0.9948190    0.00000       Uiso       1.00
      C527          C  0.8592539  0.9200553  0.8270020    0.00000       Uiso       1.00
      C528          C  0.8488513  0.9096373  0.8015735    0.00000       Uiso       1.00
      C529          C  0.9021729  0.8391896  0.8343925    0.00000       Uiso       1.00
      C530          C  0.8915094  0.8287835  0.8090255    0.00000       Uiso       1.00
      C531          C  0.8391870  0.9021682  0.9069680    0.00000       Uiso       1.00
      C532          C  0.8287830  0.8915002  0.9112616    0.00000       Uiso       1.00
      C533          C  0.9166381  0.9892045  0.9214353    0.00000       Uiso       1.00
      C534          C  0.9123428  0.0145701  0.9321001    0.00000       Uiso       1.00
      H253          H  0.9273043  0.9782648  0.9092309    0.00000       Uiso       1.00
      H254          H  0.9197599  0.0225514  0.9278222    0.00000       Uiso       1.00
      H255          H  0.0225446  0.9197472  0.0144963    0.00000       Uiso       1.00
      H256          H  0.9782616  0.9272841  0.9963413    0.00000       Uiso       1.00
      H257          H  0.9885454  0.8642145  0.8838319    0.00000       Uiso       1.00
      H258          H  0.0329370  0.8561391  0.9020325    0.00000       Uiso       1.00
      H259          H  0.8957931  0.8091068  0.8010392    0.00000       Uiso       1.00
      H260          H  0.9143848  0.8272554  0.8453281    0.00000       Uiso       1.00
      H261          H  0.8546664  0.9397666  0.8350511    0.00000       Uiso       1.00
      H262          H  0.8365461  0.9215687  0.7906551    0.00000       Uiso       1.00
      H263          H  0.8091078  0.8957828  0.9038511    0.00000       Uiso       1.00
      H264          H  0.8272556  0.9143823  0.8963124    0.00000       Uiso       1.00
       N25          N  0.7773616  0.4564415  0.5993671    0.00000       Uiso       1.00
      C535          C  0.8010603  0.4564504  0.6107395    0.00000       Uiso       1.00
      C536          C  0.8010603  0.4564501  0.6467736    0.00000       Uiso       1.00
       N26          N  0.8124327  0.4564412  0.6344382    0.00000       Uiso       1.00
       N27          N  0.7773615  0.4564412  0.6344383    0.00000       Uiso       1.00
      C537          C  0.7650262  0.4564504  0.6107395    0.00000       Uiso       1.00
       N28          N  0.4564412  0.7773614  0.6344387    0.00000       Uiso       1.00
      C538          C  0.4564500  0.8010601  0.6467739    0.00000       Uiso       1.00
      C539          C  0.4564503  0.8010607  0.6107401    0.00000       Uiso       1.00
       N29          N  0.4564412  0.8124328  0.6344387    0.00000       Uiso       1.00
       N30          N  0.4564415  0.7773619  0.5993677    0.00000       Uiso       1.00
      C540          C  0.4564503  0.7650263  0.6107401    0.00000       Uiso       1.00
      C541          C  0.3629356  0.3831251  0.5477547    0.00000       Uiso       1.00
      C542          C  0.3421029  0.3842274  0.5490101    0.00000       Uiso       1.00
      C543          C  0.3221080  0.4059951  0.5514501    0.00000       Uiso       1.00
      C544          C  0.3009207  0.4064306  0.5514391    0.00000       Uiso       1.00
      C545          C  0.2986983  0.3847498  0.5475973    0.00000       Uiso       1.00
      C546          C  0.3189419  0.3629340  0.5448046    0.00000       Uiso       1.00
      C547          C  0.3412862  0.3626001  0.5472064    0.00000       Uiso       1.00
       O49          O  0.3662785  0.4023137  0.5482809    0.00000       Uiso       1.00
      H265          H  0.3229988  0.4227077  0.5533894    0.00000       Uiso       1.00
      H266          H  0.2863386  0.4238613  0.5541983    0.00000       Uiso       1.00
      H267          H  0.3168411  0.3457732  0.5391775    0.00000       Uiso       1.00
      C548          C  0.3831288  0.2135251  0.5478192    0.00000       Uiso       1.00
      C549          C  0.3842339  0.2345173  0.5490892    0.00000       Uiso       1.00
      C550          C  0.4059967  0.2351850  0.5515170    0.00000       Uiso       1.00
      C551          C  0.4064258  0.2559258  0.5514989    0.00000       Uiso       1.00
      C552          C  0.3847429  0.2759845  0.5476556    0.00000       Uiso       1.00
      C553          C  0.3629351  0.2747658  0.5448872    0.00000       Uiso       1.00
      C554          C  0.3626093  0.2551588  0.5472991    0.00000       Uiso       1.00
       O50          O  0.4023113  0.1915103  0.5483123    0.00000       Uiso       1.00
      H268          H  0.4227081  0.2195191  0.5534403    0.00000       Uiso       1.00
      H269          H  0.4238537  0.2558322  0.5542459    0.00000       Uiso       1.00
      H270          H  0.3457697  0.2883927  0.5392619    0.00000       Uiso       1.00
      C555          C  0.2135123  0.3629654  0.5477970    0.00000       Uiso       1.00
      C556          C  0.2345080  0.3421484  0.5490859    0.00000       Uiso       1.00
      C557          C  0.2351793  0.3221647  0.5515478    0.00000       Uiso       1.00
      C558          C  0.2559283  0.3009832  0.5515602    0.00000       Uiso       1.00
      C559          C  0.2759928  0.2987580  0.5477204    0.00000       Uiso       1.00
      C560          C  0.2747720  0.3189989  0.5449190    0.00000       Uiso       1.00
      C561          C  0.2551496  0.3413350  0.5472894    0.00000       Uiso       1.00
       O51          O  0.1915084  0.3663011  0.5483189    0.00000       Uiso       1.00
      H271          H  0.2195044  0.3230598  0.5534738    0.00000       Uiso       1.00
      H272          H  0.2558382  0.2864045  0.5543251    0.00000       Uiso       1.00
      H273          H  0.2884120  0.3169000  0.5393006    0.00000       Uiso       1.00
      C562          C  0.2125150  0.3822243  0.5446225    0.00000       Uiso       1.00
      C563          C  0.2329239  0.3826846  0.5440409    0.00000       Uiso       1.00
      C564          C  0.2319970  0.4026843  0.5413830    0.00000       Uiso       1.00
      C565          C  0.2528955  0.4032054  0.5417751    0.00000       Uiso       1.00
      C566          C  0.2756126  0.3843487  0.5462503    0.00000       Uiso       1.00
      C567          C  0.2762472  0.3646358  0.5494352    0.00000       Uiso       1.00
      C568          C  0.2549353  0.3625361  0.5465863    0.00000       Uiso       1.00
       O52          O  0.1897825  0.4005786  0.5428128    0.00000       Uiso       1.00
      H274          H  0.2149384  0.4178973  0.5389042    0.00000       Uiso       1.00
      H275          H  0.2509832  0.4186206  0.5387407    0.00000       Uiso       1.00
      H276          H  0.2936486  0.3515147  0.5555838    0.00000       Uiso       1.00
      C569          C  0.3617008  0.2125425  0.5446866    0.00000       Uiso       1.00
      C570          C  0.3402574  0.2329600  0.5441278    0.00000       Uiso       1.00
      C571          C  0.3185377  0.2320538  0.5415226    0.00000       Uiso       1.00
      C572          C  0.2975189  0.2529591  0.5419310    0.00000       Uiso       1.00
      C573          C  0.2981277  0.2756656  0.5463651    0.00000       Uiso       1.00
      C574          C  0.3203818  0.2762790  0.5495008    0.00000       Uiso       1.00
      C575          C  0.3409342  0.2549594  0.5466397    0.00000       Uiso       1.00
       O53          O  0.3642700  0.1898134  0.5428843    0.00000       Uiso       1.00
      H277          H  0.3179027  0.2150017  0.5390612    0.00000       Uiso       1.00
      H278          H  0.2809910  0.2510550  0.5389332    0.00000       Uiso       1.00
      H279          H  0.3222618  0.2936704  0.5556316    0.00000       Uiso       1.00
      C576          C  0.3822115  0.3616937  0.5446197    0.00000       Uiso       1.00
      C577          C  0.3826682  0.3402490  0.5440446    0.00000       Uiso       1.00
      C578          C  0.4026921  0.3185341  0.5414466    0.00000       Uiso       1.00
      C579          C  0.4032192  0.2975148  0.5418584    0.00000       Uiso       1.00
      C580          C  0.3843312  0.2981170  0.5462798    0.00000       Uiso       1.00
      C581          C  0.3645879  0.3203669  0.5493981    0.00000       Uiso       1.00
      C582          C  0.3624976  0.3409220  0.5465428    0.00000       Uiso       1.00
       O54          O  0.4005844  0.3642645  0.5428442    0.00000       Uiso       1.00
      H280          H  0.4179195  0.3179085  0.5389948    0.00000       Uiso       1.00
      H281          H  0.4186640  0.2809941  0.5388765    0.00000       Uiso       1.00
      H282          H  0.3514380  0.3222426  0.5555166    0.00000       Uiso       1.00
        B1          B  0.3902542  0.3901211  0.5451567    0.00000       Uiso       1.00
        B2          B  0.3901212  0.1765941  0.5451752    0.00000       Uiso       1.00
        B3          B  0.1765813  0.3902563  0.5451522    0.00000       Uiso       1.00
      C583          C  0.3831282  0.3629385  0.1983117    0.00000       Uiso       1.00
      C584          C  0.3842307  0.3421061  0.1773263    0.00000       Uiso       1.00
      C585          C  0.4059985  0.3221112  0.1766591    0.00000       Uiso       1.00
      C586          C  0.4064341  0.3009241  0.1559184    0.00000       Uiso       1.00
      C587          C  0.3847535  0.2987018  0.1358572    0.00000       Uiso       1.00
      C588          C  0.3629376  0.3189453  0.1370776    0.00000       Uiso       1.00
      C589          C  0.3626036  0.3412895  0.1566861    0.00000       Uiso       1.00
       O55          O  0.4023167  0.3662812  0.2203169    0.00000       Uiso       1.00
      H283          H  0.4227110  0.3230019  0.1923231    0.00000       Uiso       1.00
      H284          H  0.4238649  0.2863420  0.1560079    0.00000       Uiso       1.00
      H285          H  0.3457769  0.3168447  0.1234432    0.00000       Uiso       1.00
      C590          C  0.2135296  0.3831331  0.0488419    0.00000       Uiso       1.00
      C591          C  0.2345216  0.3842379  0.0696689    0.00000       Uiso       1.00
      C592          C  0.2351891  0.4060006  0.0896715    0.00000       Uiso       1.00
      C593          C  0.2559298  0.4064295  0.1108593    0.00000       Uiso       1.00
      C594          C  0.2759884  0.3847466  0.1130783    0.00000       Uiso       1.00
      C595          C  0.2747699  0.3629389  0.0928205    0.00000       Uiso       1.00
      C596          C  0.2551631  0.3626134  0.0704759    0.00000       Uiso       1.00
       O56          O  0.1915148  0.4023156  0.0455165    0.00000       Uiso       1.00
      H286          H  0.2195232  0.4227121  0.0887938    0.00000       Uiso       1.00
      H287          H  0.2558361  0.4238573  0.1254465    0.00000       Uiso       1.00
      H288          H  0.2883967  0.3457735  0.0949071    0.00000       Uiso       1.00
      C597          C  0.3629701  0.2135168  0.0286881    0.00000       Uiso       1.00
      C598          C  0.3421531  0.2345125  0.0275779    0.00000       Uiso       1.00
      C599          C  0.3221696  0.2351840  0.0058038    0.00000       Uiso       1.00
      C600          C  0.3009882  0.2559330  0.0053589    0.00000       Uiso       1.00
      C601          C  0.2987627  0.2759973  0.0270378    0.00000       Uiso       1.00
      C602          C  0.3190034  0.2747762  0.0488591    0.00000       Uiso       1.00
      C603          C  0.3413394  0.2551539  0.0492024    0.00000       Uiso       1.00
       O57          O  0.3663060  0.1915131  0.0094982    0.00000       Uiso       1.00
      H289          H  0.3230643  0.2195089  0.9890980    0.00000       Uiso       1.00
      H290          H  0.2864090  0.2558427  0.9879252    0.00000       Uiso       1.00
      H291          H  0.3169043  0.2884160  0.0660184    0.00000       Uiso       1.00
      C604          C  0.3822287  0.2125193  0.0501240    0.00000       Uiso       1.00
      C605          C  0.3826889  0.2329279  0.0715746    0.00000       Uiso       1.00
      C606          C  0.4026883  0.2320009  0.0933050    0.00000       Uiso       1.00
      C607          C  0.4032092  0.2528991  0.1143323    0.00000       Uiso       1.00
      C608          C  0.3843526  0.2756163  0.1137176    0.00000       Uiso       1.00
      C609          C  0.3646399  0.2762511  0.0914546    0.00000       Uiso       1.00
      C610          C  0.3625404  0.2549393  0.0708920    0.00000       Uiso       1.00
       O58          O  0.4005831  0.1897867  0.0475555    0.00000       Uiso       1.00
      H292          H  0.4179014  0.2149423  0.0939383    0.00000       Uiso       1.00
      H293          H  0.4186243  0.2509867  0.1308695    0.00000       Uiso       1.00
      H294          H  0.3515189  0.2936526  0.0895865    0.00000       Uiso       1.00
      C611          C  0.2125472  0.3617053  0.0295641    0.00000       Uiso       1.00
      C612          C  0.2329646  0.3402618  0.0290970    0.00000       Uiso       1.00
      C613          C  0.2320586  0.3185423  0.0090764    0.00000       Uiso       1.00
      C614          C  0.2529639  0.2975235  0.0085546    0.00000       Uiso       1.00
      C615          C  0.2756703  0.2981322  0.0274356    0.00000       Uiso       1.00
      C616          C  0.2762836  0.3203861  0.0471672    0.00000       Uiso       1.00
      C617          C  0.2549639  0.3409384  0.0492611    0.00000       Uiso       1.00
       O59          O  0.1898182  0.3642745  0.0112065    0.00000       Uiso       1.00
      H295          H  0.2150060  0.3179070  0.9938507    0.00000       Uiso       1.00
      H296          H  0.2510593  0.2809953  0.9931201    0.00000       Uiso       1.00
      H297          H  0.2936748  0.3222661  0.0603078    0.00000       Uiso       1.00
      C618          C  0.3616968  0.3822145  0.1992914    0.00000       Uiso       1.00
      C619          C  0.3402523  0.3826713  0.1788786    0.00000       Uiso       1.00
      C620          C  0.3185373  0.4026952  0.1797856    0.00000       Uiso       1.00
      C621          C  0.2975182  0.4032224  0.1588817    0.00000       Uiso       1.00
      C622          C  0.2981207  0.3843347  0.1361748    0.00000       Uiso       1.00
      C623          C  0.3203706  0.3645914  0.1355630    0.00000       Uiso       1.00
      C624          C  0.3409255  0.3625009  0.1568830    0.00000       Uiso       1.00
       O60          O  0.3642673  0.4005871  0.2220103    0.00000       Uiso       1.00
      H298          H  0.3179116  0.4179223  0.1968389    0.00000       Uiso       1.00
      H299          H  0.2809975  0.4186672  0.1607876    0.00000       Uiso       1.00
      H300          H  0.3222465  0.3514417  0.1181706    0.00000       Uiso       1.00
        B4          B  0.3901238  0.3902568  0.2352241    0.00000       Uiso       1.00
        B5          B  0.1765988  0.3901257  0.0215475    0.00000       Uiso       1.00
        B6          B  0.3902610  0.1765858  0.0216928    0.00000       Uiso       1.00
       N31          N  0.8124301  0.7773585  0.9553557    0.00000       Uiso       1.00
      C625          C  0.8010575  0.8010573  0.9553468    0.00000       Uiso       1.00
      C626          C  0.7650232  0.8010575  0.9553468    0.00000       Uiso       1.00
       N32          N  0.7773587  0.8124299  0.9553557    0.00000       Uiso       1.00
       N33          N  0.7773587  0.7773586  0.9553557    0.00000       Uiso       1.00
      C627          C  0.8010575  0.7650232  0.9553468    0.00000       Uiso       1.00
      C628          C  0.8640430  0.3629313  0.0286722    0.00000       Uiso       1.00
      C629          C  0.8627875  0.3420987  0.0275699    0.00000       Uiso       1.00
      C630          C  0.8603478  0.3221040  0.0058023    0.00000       Uiso       1.00
      C631          C  0.8603588  0.3009167  0.0053669    0.00000       Uiso       1.00
      C632          C  0.8642004  0.2986940  0.0270475    0.00000       Uiso       1.00
      C633          C  0.8669930  0.3189374  0.0488632    0.00000       Uiso       1.00
      C634          C  0.8645911  0.3412817  0.0491970    0.00000       Uiso       1.00
       O61          O  0.8635170  0.3662744  0.0094837    0.00000       Uiso       1.00
      H301          H  0.8584080  0.3229946  0.9890897    0.00000       Uiso       1.00
      H302          H  0.8575991  0.2863344  0.9879361    0.00000       Uiso       1.00
      H303          H  0.8726199  0.3168364  0.0660239    0.00000       Uiso       1.00
      C635          C  0.8639770  0.3831230  0.1982706    0.00000       Uiso       1.00
      C636          C  0.8627071  0.3842283  0.1772787    0.00000       Uiso       1.00
      C637          C  0.8602793  0.4059911  0.1766110    0.00000       Uiso       1.00
      C638          C  0.8602976  0.4064204  0.1558703    0.00000       Uiso       1.00
      C639          C  0.8641410  0.3847376  0.1358118    0.00000       Uiso       1.00
      C640          C  0.8669096  0.3629298  0.1370305    0.00000       Uiso       1.00
      C641          C  0.8644974  0.3626038  0.1566374    0.00000       Uiso       1.00
       O62          O  0.8634837  0.4023052  0.2202852    0.00000       Uiso       1.00
      H304          H  0.8583559  0.4227024  0.1922767    0.00000       Uiso       1.00
      H305          H  0.8575506  0.4238483  0.1559639    0.00000       Uiso       1.00
      H306          H  0.8725350  0.3457644  0.1234038    0.00000       Uiso       1.00
      C642          C  0.8640006  0.2135078  0.0488317    0.00000       Uiso       1.00
      C643          C  0.8627114  0.2345033  0.0696485    0.00000       Uiso       1.00
      C644          C  0.8602494  0.2351744  0.0896320    0.00000       Uiso       1.00
      C645          C  0.8602368  0.2559233  0.1108133    0.00000       Uiso       1.00
      C646          C  0.8640766  0.2759877  0.1130385    0.00000       Uiso       1.00
      C647          C  0.8668782  0.2747671  0.0927978    0.00000       Uiso       1.00
      C648          C  0.8645080  0.2551449  0.0704620    0.00000       Uiso       1.00
       O63          O  0.8634787  0.1915040  0.0454960    0.00000       Uiso       1.00
      H307          H  0.8583233  0.2194996  0.0887369    0.00000       Uiso       1.00
      H308          H  0.8574716  0.2558330  0.1253918    0.00000       Uiso       1.00
      H309          H  0.8724967  0.2884070  0.0948967    0.00000       Uiso       1.00
      C649          C  0.8671753  0.2125107  0.0295730    0.00000       Uiso       1.00
      C650          C  0.8677569  0.2329196  0.0291127    0.00000       Uiso       1.00
      C651          C  0.8704150  0.2319929  0.0091133    0.00000       Uiso       1.00
      C652          C  0.8700229  0.2528914  0.0085922    0.00000       Uiso       1.00
      C653          C  0.8655475  0.2756083  0.0274486    0.00000       Uiso       1.00
      C654          C  0.8623623  0.2762428  0.0471613    0.00000       Uiso       1.00
      C655          C  0.8652112  0.2549308  0.0492610    0.00000       Uiso       1.00
       O64          O  0.8689852  0.1897783  0.0112189    0.00000       Uiso       1.00
      H310          H  0.8728933  0.2149341  0.9939001    0.00000       Uiso       1.00
      H311          H  0.8730568  0.2509789  0.9931769    0.00000       Uiso       1.00
      H312          H  0.8562136  0.2936441  0.0602822    0.00000       Uiso       1.00
      C656          C  0.8671095  0.3616950  0.1992532    0.00000       Uiso       1.00
      C657          C  0.8676687  0.3402517  0.1788359    0.00000       Uiso       1.00
      C658          C  0.8702739  0.3185320  0.1797422    0.00000       Uiso       1.00
      C659          C  0.8698657  0.2975134  0.1588371    0.00000       Uiso       1.00
      C660          C  0.8654317  0.2981224  0.1361307    0.00000       Uiso       1.00
      C661          C  0.8622959  0.3203765  0.1355173    0.00000       Uiso       1.00
      C662          C  0.8651569  0.3409287  0.1568367    0.00000       Uiso       1.00
       O65          O  0.8689117  0.3642639  0.2219822    0.00000       Uiso       1.00
      H313          H  0.8727351  0.3178968  0.1967941    0.00000       Uiso       1.00
      H314          H  0.8728634  0.2809854  0.1607412    0.00000       Uiso       1.00
      H315          H  0.8561652  0.3222568  0.1181260    0.00000       Uiso       1.00
      C663          C  0.8671778  0.3822071  0.0501034    0.00000       Uiso       1.00
      C664          C  0.8677527  0.3826635  0.0715479    0.00000       Uiso       1.00
      C665          C  0.8703507  0.4026872  0.0932627    0.00000       Uiso       1.00
      C666          C  0.8699386  0.4032141  0.1142818    0.00000       Uiso       1.00
      C667          C  0.8655171  0.3843262  0.1136795    0.00000       Uiso       1.00
      C668          C  0.8623990  0.3645830  0.0914298    0.00000       Uiso       1.00
      C669          C  0.8652545  0.3624929  0.0708749    0.00000       Uiso       1.00
       O66          O  0.8689533  0.4005800  0.0475327    0.00000       Uiso       1.00
      H316          H  0.8728024  0.4179145  0.0938883    0.00000       Uiso       1.00
      H317          H  0.8729204  0.4186587  0.1308024    0.00000       Uiso       1.00
      H318          H  0.8562805  0.3514332  0.0895541    0.00000       Uiso       1.00
        B7          B  0.8666411  0.3902500  0.0216763    0.00000       Uiso       1.00
        B8          B  0.8666207  0.3901150  0.2352013    0.00000       Uiso       1.00
        B9          B  0.8666456  0.1765771  0.0215411    0.00000       Uiso       1.00
       N34          N  0.7773614  0.7773617  0.5993671    0.00000       Uiso       1.00
      C670          C  0.7650260  0.8010605  0.6107396    0.00000       Uiso       1.00
      C671          C  0.8010598  0.8010604  0.6467736    0.00000       Uiso       1.00
       N35          N  0.7773611  0.8124328  0.6344383    0.00000       Uiso       1.00
       N36          N  0.8124324  0.7773616  0.6344383    0.00000       Uiso       1.00
      C672          C  0.8010602  0.7650263  0.6107396    0.00000       Uiso       1.00
      C673          C  0.3629385  0.8640500  0.1983118    0.00000       Uiso       1.00
      C674          C  0.3421060  0.8627948  0.1773263    0.00000       Uiso       1.00
      C675          C  0.3221111  0.8603547  0.1766592    0.00000       Uiso       1.00
      C676          C  0.3009240  0.8603659  0.1559184    0.00000       Uiso       1.00
      C677          C  0.2987017  0.8642079  0.1358572    0.00000       Uiso       1.00
      C678          C  0.3189453  0.8670006  0.1370776    0.00000       Uiso       1.00
      C679          C  0.3412895  0.8645986  0.1566861    0.00000       Uiso       1.00
       O67          O  0.3662812  0.8635235  0.2203170    0.00000       Uiso       1.00
      H319          H  0.3230019  0.8584152  0.1923231    0.00000       Uiso       1.00
      H320          H  0.2863420  0.8576066  0.1560079    0.00000       Uiso       1.00
      H321          H  0.3168446  0.8726279  0.1234432    0.00000       Uiso       1.00
      C680          C  0.3831330  0.8639868  0.0488419    0.00000       Uiso       1.00
      C681          C  0.3842379  0.8627166  0.0696689    0.00000       Uiso       1.00
      C682          C  0.4060006  0.8602886  0.0896715    0.00000       Uiso       1.00
      C683          C  0.4064294  0.8603066  0.1108593    0.00000       Uiso       1.00
      C684          C  0.3847465  0.8641498  0.1130783    0.00000       Uiso       1.00
      C685          C  0.3629389  0.8669184  0.0928205    0.00000       Uiso       1.00
      C686          C  0.3626133  0.8645067  0.0704759    0.00000       Uiso       1.00
       O68          O  0.4023155  0.8634938  0.0455166    0.00000       Uiso       1.00
      H322          H  0.4227121  0.8583654  0.0887938    0.00000       Uiso       1.00
      H323          H  0.4238573  0.8575593  0.1254465    0.00000       Uiso       1.00
      H324          H  0.3457734  0.8725438  0.0949071    0.00000       Uiso       1.00
      C687          C  0.2135167  0.8640092  0.0286881    0.00000       Uiso       1.00
      C688          C  0.2345124  0.8627203  0.0275779    0.00000       Uiso       1.00
      C689          C  0.2351839  0.8602586  0.0058038    0.00000       Uiso       1.00
      C690          C  0.2559330  0.8602462  0.0053590    0.00000       Uiso       1.00
      C691          C  0.2759972  0.8640859  0.0270378    0.00000       Uiso       1.00
      C692          C  0.2747762  0.8668871  0.0488591    0.00000       Uiso       1.00
      C693          C  0.2551539  0.8645166  0.0492024    0.00000       Uiso       1.00
       O69          O  0.1915130  0.8634874  0.0094982    0.00000       Uiso       1.00
      H325          H  0.2195085  0.8583323  0.9890980    0.00000       Uiso       1.00
      H326          H  0.2558424  0.8574810  0.9879252    0.00000       Uiso       1.00
      H327          H  0.2884160  0.8725054  0.0660184    0.00000       Uiso       1.00
      C694          C  0.2125192  0.8671835  0.0501240    0.00000       Uiso       1.00
      C695          C  0.2329279  0.8677649  0.0715746    0.00000       Uiso       1.00
      C696          C  0.2320008  0.8704227  0.0933051    0.00000       Uiso       1.00
      C697          C  0.2528991  0.8700303  0.1143324    0.00000       Uiso       1.00
      C698          C  0.2756162  0.8655552  0.1137176    0.00000       Uiso       1.00
      C699          C  0.2762510  0.8623704  0.0914547    0.00000       Uiso       1.00
      C700          C  0.2549393  0.8652195  0.0708921    0.00000       Uiso       1.00
       O70          O  0.1897867  0.8689933  0.0475555    0.00000       Uiso       1.00
      H328          H  0.2149422  0.8729014  0.0939384    0.00000       Uiso       1.00
      H329          H  0.2509867  0.8730646  0.1308695    0.00000       Uiso       1.00
      H330          H  0.2936526  0.8562218  0.0895865    0.00000       Uiso       1.00
      C701          C  0.3617052  0.8671196  0.0295641    0.00000       Uiso       1.00
      C702          C  0.3402617  0.8676785  0.0290970    0.00000       Uiso       1.00
      C703          C  0.3185422  0.8702839  0.0090764    0.00000       Uiso       1.00
      C704          C  0.2975234  0.8698755  0.0085546    0.00000       Uiso       1.00
      C705          C  0.2981321  0.8654411  0.0274357    0.00000       Uiso       1.00
      C706          C  0.3203860  0.8623052  0.0471672    0.00000       Uiso       1.00
      C707          C  0.3409383  0.8651664  0.0492611    0.00000       Uiso       1.00
       O71          O  0.3642745  0.8689221  0.0112065    0.00000       Uiso       1.00
      H331          H  0.3179067  0.8727451  0.9938507    0.00000       Uiso       1.00
      H332          H  0.2809950  0.8728730  0.9931201    0.00000       Uiso       1.00
      H333          H  0.3222660  0.8561743  0.0603078    0.00000       Uiso       1.00
      C708          C  0.3822144  0.8671849  0.1992914    0.00000       Uiso       1.00
      C709          C  0.3826713  0.8677602  0.1788786    0.00000       Uiso       1.00
      C710          C  0.4026951  0.8703583  0.1797856    0.00000       Uiso       1.00
      C711          C  0.4032224  0.8699467  0.1588817    0.00000       Uiso       1.00
      C712          C  0.3843346  0.8655254  0.1361748    0.00000       Uiso       1.00
      C713          C  0.3645913  0.8624071  0.1355630    0.00000       Uiso       1.00
      C714          C  0.3625009  0.8652623  0.1568831    0.00000       Uiso       1.00
       O72          O  0.4005871  0.8689603  0.2220103    0.00000       Uiso       1.00
      H334          H  0.4179223  0.8728099  0.1968389    0.00000       Uiso       1.00
      H335          H  0.4186671  0.8729286  0.1607876    0.00000       Uiso       1.00
      H336          H  0.3514416  0.8562887  0.1181706    0.00000       Uiso       1.00
       B10          B  0.3902567  0.8666477  0.2352241    0.00000       Uiso       1.00
       B11          B  0.3901257  0.8666311  0.0215475    0.00000       Uiso       1.00
       B12          B  0.1765857  0.8666540  0.0216928    0.00000       Uiso       1.00
