data_99
_audit_creation_date              0000-00-00
_audit_creation_method            'LanYouShi'
_symmetry_space_group_name_H-M    'P1'
_cell_length_a                    74.4260025
_cell_length_b                    74.4259033
_cell_length_c                    74.4260025
_cell_angle_alpha                 119.9993973
_cell_angle_beta                  119.9993973
_cell_angle_gamma                 60.0000000
loop_
_atom_site_label
_atom_site_type_symbol
_atom_site_fract_x
_atom_site_fract_y
_atom_site_fract_z
_atom_site_U_iso_or_equiv
_atom_site_adp_type
_atom_site_occupancy
        C1          C  0.4610902  0.7135068  0.5872993    0.00000       Uiso       1.00
        C2          C  0.4627067  0.7020795  0.5662068    0.00000       Uiso       1.00
        C3          C  0.4662394  0.6791667  0.5565180    0.00000       Uiso       1.00
        C4          C  0.4627064  0.7020792  0.5985809    0.00000       Uiso       1.00
        C5          C  0.4660980  0.6792403  0.5889153    0.00000       Uiso       1.00
        C6          C  0.4680649  0.6671845  0.5676805    0.00000       Uiso       1.00
        H1          H  0.4019304  0.4600708  0.3288900    0.00000       Uiso       1.00
        H2          H  0.4613696  0.7111520  0.6157756    0.00000       Uiso       1.00
        H3          H  0.4613701  0.7111525  0.5567482    0.00000       Uiso       1.00
        C7          C  0.4127045  0.4127050  0.2864979    0.00000       Uiso       1.00
        C8          C  0.4014227  0.4337977  0.2979252    0.00000       Uiso       1.00
        C9          C  0.4110877  0.4435795  0.3207638    0.00000       Uiso       1.00
       C10          C  0.4337972  0.4014232  0.2979252    0.00000       Uiso       1.00
       C11          C  0.4434856  0.4111145  0.3208379    0.00000       Uiso       1.00
       C12          C  0.4323217  0.4324331  0.3328189    0.00000       Uiso       1.00
        H4          H  0.6711138  0.4668896  0.5399334    0.00000       Uiso       1.00
        H5          H  0.4432559  0.3842283  0.2888524    0.00000       Uiso       1.00
        H6          H  0.3842279  0.4432565  0.2888524    0.00000       Uiso       1.00
       C13          C  0.4127023  0.4127028  0.5389113    0.00000       Uiso       1.00
       C14          C  0.4337952  0.4014211  0.5372951    0.00000       Uiso       1.00
       C15          C  0.4435760  0.4110851  0.5339007    0.00000       Uiso       1.00
       C16          C  0.4014207  0.4337956  0.5372951    0.00000       Uiso       1.00
       C17          C  0.4111104  0.4434829  0.5337588    0.00000       Uiso       1.00
       C18          C  0.4324289  0.4323183  0.5319306    0.00000       Uiso       1.00
        H7          H  0.4668890  0.6711139  0.5980715    0.00000       Uiso       1.00
        H8          H  0.3842258  0.4432543  0.5386317    0.00000       Uiso       1.00
        H9          H  0.4432538  0.3842262  0.5386317    0.00000       Uiso       1.00
       C19          C  0.7135057  0.4610908  0.5872993    0.00000       Uiso       1.00
       C20          C  0.7020783  0.4627070  0.5985809    0.00000       Uiso       1.00
       C21          C  0.6791655  0.4662395  0.5888895    0.00000       Uiso       1.00
       C22          C  0.7020785  0.4627073  0.5662068    0.00000       Uiso       1.00
       C23          C  0.6792399  0.4660980  0.5564246    0.00000       Uiso       1.00
       C24          C  0.6671842  0.4680645  0.5675705    0.00000       Uiso       1.00
       H10          H  0.4600664  0.4019275  0.5331056    0.00000       Uiso       1.00
       C25          C  0.4999987  0.5000008  0.4999993    0.00000       Uiso       1.00
       H11          H  0.7111515  0.4613708  0.5567482    0.00000       Uiso       1.00
       H12          H  0.7111509  0.4613702  0.6157756    0.00000       Uiso       1.00
        N1          N  0.4686164  0.6674545  0.5340059    0.00000       Uiso       1.00
        O1          O  0.4716465  0.6478972  0.5252824    0.00000       Uiso       1.00
        O2          O  0.4674908  0.6776246  0.5246893    0.00000       Uiso       1.00
        N2          N  0.6674529  0.4686192  0.6020676    0.00000       Uiso       1.00
        O3          O  0.6478957  0.4716492  0.5942644    0.00000       Uiso       1.00
        O4          O  0.6776226  0.4674961  0.6204295    0.00000       Uiso       1.00
        N3          N  0.4659971  0.3979352  0.3325484    0.00000       Uiso       1.00
        O5          O  0.4747220  0.4057369  0.3521055    0.00000       Uiso       1.00
        O6          O  0.4753115  0.3795736  0.3223772    0.00000       Uiso       1.00
        N4          N  0.3979261  0.4659929  0.5313770    0.00000       Uiso       1.00
        O7          O  0.4057236  0.4747197  0.5283436    0.00000       Uiso       1.00
        O8          O  0.3795646  0.4753042  0.5325012    0.00000       Uiso       1.00
       C26          C  0.4721021  0.6424382  0.5574425    0.00000       Uiso       1.00
       C27          C  0.4637179  0.6321865  0.5343871    0.00000       Uiso       1.00
       C28          C  0.4675731  0.6091880  0.5248488    0.00000       Uiso       1.00
       C29          C  0.4844450  0.6287659  0.5706702    0.00000       Uiso       1.00
       C30          C  0.4882365  0.6058003  0.5613536    0.00000       Uiso       1.00
       C31          C  0.4798211  0.5959486  0.5383673    0.00000       Uiso       1.00
       H13          H  0.4915012  0.6358764  0.5882844    0.00000       Uiso       1.00
       H14          H  0.4538968  0.6421241  0.5237790    0.00000       Uiso       1.00
       C32          C  0.4425571  0.4429044  0.3575636    0.00000       Uiso       1.00
       C33          C  0.4293285  0.4574537  0.3712356    0.00000       Uiso       1.00
       C34          C  0.4386438  0.4673122  0.3942007    0.00000       Uiso       1.00
       C35          C  0.4656107  0.4384949  0.3678143    0.00000       Uiso       1.00
       C36          C  0.4751466  0.4481007  0.3908111    0.00000       Uiso       1.00
       C37          C  0.4616290  0.4626016  0.4040508    0.00000       Uiso       1.00
       H15          H  0.4762225  0.4277790  0.3578809    0.00000       Uiso       1.00
       H16          H  0.4117139  0.4608945  0.3641250    0.00000       Uiso       1.00
       C38          C  0.4429006  0.4425521  0.5278898    0.00000       Uiso       1.00
       C39          C  0.4574584  0.4293210  0.5155464    0.00000       Uiso       1.00
       C40          C  0.4673190  0.4386366  0.5117547    0.00000       Uiso       1.00
       C41          C  0.4384833  0.4656065  0.5362746    0.00000       Uiso       1.00
       C42          C  0.4480884  0.4751423  0.5324185    0.00000       Uiso       1.00
       C43          C  0.4625988  0.4616253  0.5201713    0.00000       Uiso       1.00
       H17          H  0.4277622  0.4762190  0.5460971    0.00000       Uiso       1.00
       H18          H  0.4609019  0.4117039  0.5084912    0.00000       Uiso       1.00
       C44          C  0.6424382  0.4721018  0.5570993    0.00000       Uiso       1.00
       C45          C  0.6321872  0.4637103  0.5615113    0.00000       Uiso       1.00
       C46          C  0.6091887  0.4675676  0.5519083    0.00000       Uiso       1.00
       C47          C  0.6287659  0.4844512  0.5425487    0.00000       Uiso       1.00
       C48          C  0.6058004  0.4882421  0.5326906    0.00000       Uiso       1.00
       C49          C  0.5959493  0.4798220  0.5374049    0.00000       Uiso       1.00
       H19          H  0.6358773  0.4915112  0.5391064    0.00000       Uiso       1.00
       H20          H  0.6421283  0.4538813  0.5722280    0.00000       Uiso       1.00
       C50          C  0.5991079  0.4594217  0.5565858    0.00000       Uiso       1.00
       C51          C  0.5762446  0.4635662  0.5472355    0.00000       Uiso       1.00
       C52          C  0.4980513  0.4434282  0.4008911    0.00000       Uiso       1.00
       C53          C  0.5074196  0.4527807  0.4237532    0.00000       Uiso       1.00
       H21          H  0.5087835  0.4323726  0.3910788    0.00000       Uiso       1.00
       H22          H  0.5251430  0.4486637  0.4309897    0.00000       Uiso       1.00
       H23          H  0.6089231  0.4499344  0.5676420    0.00000       Uiso       1.00
       H24          H  0.5690042  0.4572013  0.5513531    0.00000       Uiso       1.00
       C54          C  0.4838082  0.5727912  0.5288752    0.00000       Uiso       1.00
       C55          C  0.4757791  0.5628525  0.5058709    0.00000       Uiso       1.00
       C56          C  0.4803336  0.5397474  0.4964771    0.00000       Uiso       1.00
       C57          C  0.4961136  0.5595713  0.5423852    0.00000       Uiso       1.00
       C58          C  0.5002986  0.5365727  0.5328428    0.00000       Uiso       1.00
       C59          C  0.4925062  0.5260050  0.5097117    0.00000       Uiso       1.00
       H25          H  0.4565400  0.5066776  0.4733892    0.00000       Uiso       1.00
       H26          H  0.4712762  0.5212439  0.5251874    0.00000       Uiso       1.00
       C60          C  0.4711215  0.4722798  0.4272071    0.00000       Uiso       1.00
       C61          C  0.4576116  0.4866979  0.4404286    0.00000       Uiso       1.00
       C62          C  0.4671538  0.4959705  0.4634278    0.00000       Uiso       1.00
       C63          C  0.4941264  0.4672523  0.4371454    0.00000       Uiso       1.00
       C64          C  0.5035200  0.4764081  0.4602511    0.00000       Uiso       1.00
       C65          C  0.4902853  0.4912031  0.4739948    0.00000       Uiso       1.00
       H27          H  0.4748049  0.5326663  0.4787565    0.00000       Uiso       1.00
       H28          H  0.5266148  0.5101487  0.4933030    0.00000       Uiso       1.00
       C66          C  0.4722754  0.4711211  0.5161881    0.00000       Uiso       1.00
       C67          C  0.4867029  0.4576108  0.5038846    0.00000       Uiso       1.00
       C68          C  0.4959742  0.4671550  0.4997011    0.00000       Uiso       1.00
       C69          C  0.4672369  0.4941277  0.5242181    0.00000       Uiso       1.00
       C70          C  0.4763914  0.5035231  0.5196620    0.00000       Uiso       1.00
       C71          C  0.4911983  0.4902879  0.5074909    0.00000       Uiso       1.00
       H29          H  0.5326611  0.4747972  0.5287048    0.00000       Uiso       1.00
       H30          H  0.5101591  0.5266126  0.5434573    0.00000       Uiso       1.00
       C72          C  0.5727922  0.4838092  0.5277269    0.00000       Uiso       1.00
       C73          C  0.5628524  0.4757759  0.5327600    0.00000       Uiso       1.00
       C74          C  0.5397455  0.4803330  0.5236034    0.00000       Uiso       1.00
       C75          C  0.5595722  0.4961157  0.5133020    0.00000       Uiso       1.00
       C76          C  0.5365729  0.5002987  0.5040274    0.00000       Uiso       1.00
       C77          C  0.5260037  0.4925081  0.5087999    0.00000       Uiso       1.00
       H31          H  0.5066968  0.4565435  0.4898484    0.00000       Uiso       1.00
       H32          H  0.5212417  0.4713043  0.4673318    0.00000       Uiso       1.00
       C78          C  0.4527556  0.5074204  0.5364218    0.00000       Uiso       1.00
       C79          C  0.4434050  0.4980496  0.5405633    0.00000       Uiso       1.00
       C80          C  0.4913487  0.4347126  0.4956580    0.00000       Uiso       1.00
       C81          C  0.4817605  0.4253537  0.4995165    0.00000       Uiso       1.00
       C82          C  0.4635754  0.5762436  0.4925765    0.00000       Uiso       1.00
       C83          C  0.4594325  0.5991071  0.5019438    0.00000       Uiso       1.00
       C84          C  0.5043383  0.5695980  0.5652841    0.00000       Uiso       1.00
       C85          C  0.5004746  0.5924062  0.5746406    0.00000       Uiso       1.00
       C86          C  0.5695993  0.5043434  0.5086584    0.00000       Uiso       1.00
       C87          C  0.5924059  0.5004829  0.5182501    0.00000       Uiso       1.00
       C88          C  0.4347133  0.4913360  0.4304027    0.00000       Uiso       1.00
       C89          C  0.4253575  0.4817472  0.4075958    0.00000       Uiso       1.00
       H33          H  0.4239859  0.5023094  0.4402388    0.00000       Uiso       1.00
       H34          H  0.4076662  0.4855936  0.4004197    0.00000       Uiso       1.00
       H35          H  0.4856134  0.4076614  0.4928524    0.00000       Uiso       1.00
       H36          H  0.5023288  0.4239850  0.4860756    0.00000       Uiso       1.00
       H37          H  0.4486304  0.5251456  0.5427835    0.00000       Uiso       1.00
       H38          H  0.4323416  0.5087807  0.5500439    0.00000       Uiso       1.00
       H39          H  0.5071340  0.5995868  0.5923323    0.00000       Uiso       1.00
       H40          H  0.5139210  0.5597653  0.5760143    0.00000       Uiso       1.00
       H41          H  0.4572145  0.5690066  0.4748538    0.00000       Uiso       1.00
       H42          H  0.4499519  0.6089243  0.4912162    0.00000       Uiso       1.00
       H43          H  0.5995830  0.5071459  0.5143997    0.00000       Uiso       1.00
       H44          H  0.5597646  0.5139243  0.4976767    0.00000       Uiso       1.00
       C90          C  0.8838346  0.7135068  0.5872993    0.00000       Uiso       1.00
       C91          C  0.9049274  0.7020792  0.5985809    0.00000       Uiso       1.00
       C92          C  0.9146162  0.6791665  0.5888896    0.00000       Uiso       1.00
       C93          C  0.8725531  0.7020796  0.5662068    0.00000       Uiso       1.00
       C94          C  0.8822190  0.6792407  0.5564250    0.00000       Uiso       1.00
       C95          C  0.9034538  0.6671847  0.5675708    0.00000       Uiso       1.00
       H45          H  0.1422475  0.4600690  0.5331114    0.00000       Uiso       1.00
       H46          H  0.8553582  0.7111526  0.5567482    0.00000       Uiso       1.00
       H47          H  0.9143859  0.7111520  0.6157756    0.00000       Uiso       1.00
       C96          C  0.1846399  0.4127028  0.5389114    0.00000       Uiso       1.00
       C97          C  0.1732125  0.4337956  0.5372951    0.00000       Uiso       1.00
       C98          C  0.1503737  0.4435776  0.5339035    0.00000       Uiso       1.00
       C99          C  0.1732125  0.4014211  0.5372951    0.00000       Uiso       1.00
      C100          C  0.1502995  0.4111126  0.5337623    0.00000       Uiso       1.00
      C101          C  0.1383185  0.4324313  0.5319362    0.00000       Uiso       1.00
       H48          H  0.9312010  0.4668890  0.5980715    0.00000       Uiso       1.00
       H49          H  0.1822853  0.3842261  0.5386317    0.00000       Uiso       1.00
       H50          H  0.1822853  0.4432543  0.5386317    0.00000       Uiso       1.00
      C102          C  0.9322258  0.4127052  0.2864982    0.00000       Uiso       1.00
      C103          C  0.9338420  0.4014234  0.2979255    0.00000       Uiso       1.00
      C104          C  0.9372361  0.4110872  0.3207645    0.00000       Uiso       1.00
      C105          C  0.9338419  0.4337979  0.2979255    0.00000       Uiso       1.00
      C106          C  0.9373782  0.4434850  0.3208385    0.00000       Uiso       1.00
      C107          C  0.9392062  0.4323201  0.3328205    0.00000       Uiso       1.00
       H51          H  0.8730628  0.6711145  0.5399337    0.00000       Uiso       1.00
       H52          H  0.9325054  0.4432567  0.2888527    0.00000       Uiso       1.00
       H53          H  0.9325054  0.3842285  0.2888527    0.00000       Uiso       1.00
      C108          C  0.8838347  0.4610909  0.5872993    0.00000       Uiso       1.00
      C109          C  0.8725532  0.4627074  0.5662068    0.00000       Uiso       1.00
      C110          C  0.8822448  0.4662398  0.5565178    0.00000       Uiso       1.00
      C111          C  0.9049274  0.4627070  0.5985809    0.00000       Uiso       1.00
      C112          C  0.9147096  0.4660978  0.5889149    0.00000       Uiso       1.00
      C113          C  0.9035639  0.4680645  0.5676803    0.00000       Uiso       1.00
       H54          H  0.9380313  0.4019295  0.3288923    0.00000       Uiso       1.00
      C114          C  0.9711363  0.5000008  0.5000021    0.00000       Uiso       1.00
       H55          H  0.9143859  0.4613703  0.6157756    0.00000       Uiso       1.00
       H56          H  0.8553584  0.4613708  0.5567482    0.00000       Uiso       1.00
        N5          N  0.9371283  0.6674540  0.6020662    0.00000       Uiso       1.00
        O9          O  0.9458520  0.6478967  0.5942626    0.00000       Uiso       1.00
       O10          O  0.9464449  0.6776238  0.6204270    0.00000       Uiso       1.00
        N6          N  0.8690667  0.4686199  0.5340071    0.00000       Uiso       1.00
       O11          O  0.8768701  0.4716499  0.5252832    0.00000       Uiso       1.00
       O12          O  0.8507047  0.4674970  0.5246920    0.00000       Uiso       1.00
        N7          N  0.1385891  0.3979334  0.5313842    0.00000       Uiso       1.00
       O13          O  0.1190317  0.4057354  0.5283539    0.00000       Uiso       1.00
       O14          O  0.1487603  0.3795718  0.5325081    0.00000       Uiso       1.00
        N8          N  0.9397598  0.4659948  0.3325457    0.00000       Uiso       1.00
       O15          O  0.9427931  0.4747214  0.3521034    0.00000       Uiso       1.00
       O16          O  0.9386357  0.4753061  0.3223715    0.00000       Uiso       1.00
      C115          C  0.9136921  0.6424382  0.5570996    0.00000       Uiso       1.00
      C116          C  0.9367476  0.6321863  0.5615188    0.00000       Uiso       1.00
      C117          C  0.9462861  0.6091878  0.5519139    0.00000       Uiso       1.00
      C118          C  0.9004643  0.6287662  0.5425427    0.00000       Uiso       1.00
      C119          C  0.9097811  0.6058006  0.5326852    0.00000       Uiso       1.00
      C120          C  0.9327676  0.5959486  0.5374042    0.00000       Uiso       1.00
       H57          H  0.8828500  0.6358770  0.5390955    0.00000       Uiso       1.00
       H58          H  0.9473557  0.6421236  0.5722432    0.00000       Uiso       1.00
      C121          C  0.1135736  0.4429029  0.5278984    0.00000       Uiso       1.00
      C122          C  0.0999015  0.4574525  0.5155473    0.00000       Uiso       1.00
      C123          C  0.0769363  0.4673112  0.5117562    0.00000       Uiso       1.00
      C124          C  0.1033227  0.4384934  0.5362918    0.00000       Uiso       1.00
      C125          C  0.0803257  0.4480994  0.5324369    0.00000       Uiso       1.00
      C126          C  0.0670860  0.4626006  0.5201807    0.00000       Uiso       1.00
       H59          H  0.1132562  0.4277773  0.5461209    0.00000       Uiso       1.00
       H60          H  0.1070123  0.4608932  0.5084841    0.00000       Uiso       1.00
      C127          C  0.9432467  0.4425538  0.3575665    0.00000       Uiso       1.00
      C128          C  0.9555902  0.4293224  0.3712364    0.00000       Uiso       1.00
      C129          C  0.9593817  0.4386377  0.3942041    0.00000       Uiso       1.00
      C130          C  0.9348619  0.4656081  0.3678188    0.00000       Uiso       1.00
      C131          C  0.9387178  0.4751437  0.3908155    0.00000       Uiso       1.00
      C132          C  0.9509649  0.4616265  0.4040559    0.00000       Uiso       1.00
       H61          H  0.9250394  0.4762208  0.3578878    0.00000       Uiso       1.00
       H62          H  0.9626456  0.4117053  0.3641181    0.00000       Uiso       1.00
      C133          C  0.9140353  0.4721019  0.5574427    0.00000       Uiso       1.00
      C134          C  0.9096234  0.4637106  0.5343885    0.00000       Uiso       1.00
      C135          C  0.9192266  0.4675679  0.5248503    0.00000       Uiso       1.00
      C136          C  0.9285859  0.4844510  0.5706701    0.00000       Uiso       1.00
      C137          C  0.9384441  0.4882419  0.5613536    0.00000       Uiso       1.00
      C138          C  0.9337300  0.4798220  0.5383684    0.00000       Uiso       1.00
       H63          H  0.9320279  0.4915108  0.5882837    0.00000       Uiso       1.00
       H64          H  0.8989066  0.4538817  0.5237839    0.00000       Uiso       1.00
      C139          C  0.9145493  0.4594222  0.5019463    0.00000       Uiso       1.00
      C140          C  0.9238997  0.4635668  0.4925779    0.00000       Uiso       1.00
      C141          C  0.0702456  0.4434271  0.5405893    0.00000       Uiso       1.00
      C142          C  0.0473833  0.4527798  0.5364481    0.00000       Uiso       1.00
       H65          H  0.0800579  0.4323712  0.5500778    0.00000       Uiso       1.00
       H66          H  0.0401467  0.4486628  0.5428180    0.00000       Uiso       1.00
       H67          H  0.9034930  0.4499351  0.4912182    0.00000       Uiso       1.00
       H68          H  0.9197822  0.4572020  0.4748551    0.00000       Uiso       1.00
      C143          C  0.9422598  0.5727913  0.5277261    0.00000       Uiso       1.00
      C144          C  0.9652644  0.5628523  0.5327623    0.00000       Uiso       1.00
      C145          C  0.9746582  0.5397472  0.5236056    0.00000       Uiso       1.00
      C146          C  0.9287499  0.5595716  0.5133018    0.00000       Uiso       1.00
      C147          C  0.9382924  0.5365731  0.5040307    0.00000       Uiso       1.00
      C148          C  0.9614236  0.5260051  0.5088015    0.00000       Uiso       1.00
       H69          H  0.9977466  0.5066776  0.4898302    0.00000       Uiso       1.00
       H70          H  0.9459482  0.5212445  0.4673351    0.00000       Uiso       1.00
      C149          C  0.0439295  0.4722791  0.5161954    0.00000       Uiso       1.00
      C150          C  0.0307081  0.4866973  0.5038822    0.00000       Uiso       1.00
      C151          C  0.0077087  0.4959702  0.4996981    0.00000       Uiso       1.00
      C152          C  0.0339911  0.4672516  0.5242346    0.00000       Uiso       1.00
      C153          C  0.0108853  0.4764076  0.5196785    0.00000       Uiso       1.00
      C154          C  0.9971410  0.4912029  0.5074953    0.00000       Uiso       1.00
       H71          H  0.9923790  0.5326659  0.5287161    0.00000       Uiso       1.00
       H72          H  0.9778322  0.5101483  0.5434620    0.00000       Uiso       1.00
      C155          C  0.9549479  0.4711220  0.4272113    0.00000       Uiso       1.00
      C156          C  0.9672515  0.4576114  0.4404316    0.00000       Uiso       1.00
      C157          C  0.9714348  0.4671554  0.4634305    0.00000       Uiso       1.00
      C158          C  0.9469179  0.4941285  0.4371493    0.00000       Uiso       1.00
      C159          C  0.9514738  0.5035236  0.4602550    0.00000       Uiso       1.00
      C160          C  0.9636448  0.4902882  0.4739975    0.00000       Uiso       1.00
       H73          H  0.9424307  0.4747977  0.4787560    0.00000       Uiso       1.00
       H74          H  0.9276779  0.5266131  0.4933168    0.00000       Uiso       1.00
      C161          C  0.9434081  0.4838093  0.5288765    0.00000       Uiso       1.00
      C162          C  0.9383752  0.4757762  0.5058706    0.00000       Uiso       1.00
      C163          C  0.9475320  0.4803333  0.4964773    0.00000       Uiso       1.00
      C164          C  0.9578329  0.4961155  0.5423875    0.00000       Uiso       1.00
      C165          C  0.9671079  0.5002984  0.5328460    0.00000       Uiso       1.00
      C166          C  0.9623355  0.4925081  0.5097139    0.00000       Uiso       1.00
       H75          H  0.9812874  0.4565437  0.4733940    0.00000       Uiso       1.00
       H76          H  0.0038045  0.4713039  0.5252157    0.00000       Uiso       1.00
      C167          C  0.9347141  0.5074216  0.4237573    0.00000       Uiso       1.00
      C168          C  0.9305729  0.4980509  0.4008946    0.00000       Uiso       1.00
      C169          C  0.9754782  0.4347132  0.4304059    0.00000       Uiso       1.00
      C170          C  0.9716200  0.4253546  0.4076006    0.00000       Uiso       1.00
      C171          C  0.9785587  0.5762432  0.5472439    0.00000       Uiso       1.00
      C172          C  0.9691911  0.5991067  0.5565972    0.00000       Uiso       1.00
      C173          C  0.9058508  0.5695985  0.5086547    0.00000       Uiso       1.00
      C174          C  0.8964941  0.5924068  0.5182426    0.00000       Uiso       1.00
      C175          C  0.9624764  0.5043429  0.5652857    0.00000       Uiso       1.00
      C176          C  0.9528846  0.5004823  0.5746400    0.00000       Uiso       1.00
      C177          C  0.0407341  0.4913355  0.4956480    0.00000       Uiso       1.00
      C178          C  0.0635412  0.4817465  0.4995101    0.00000       Uiso       1.00
       H77          H  0.0308980  0.5023090  0.4860580    0.00000       Uiso       1.00
       H78          H  0.0707174  0.4855928  0.4928412    0.00000       Uiso       1.00
       H79          H  0.9782841  0.4076623  0.4004253    0.00000       Uiso       1.00
       H80          H  0.9850606  0.4239855  0.4402407    0.00000       Uiso       1.00
       H81          H  0.9283523  0.5251467  0.4309954    0.00000       Uiso       1.00
       H82          H  0.9210922  0.5087821  0.3910817    0.00000       Uiso       1.00
       H83          H  0.8788023  0.5995875  0.5143911    0.00000       Uiso       1.00
       H84          H  0.8951206  0.5597661  0.4976746    0.00000       Uiso       1.00
       H85          H  0.9962815  0.5690059  0.5513685    0.00000       Uiso       1.00
       H86          H  0.9799188  0.6089237  0.5676611    0.00000       Uiso       1.00
       H87          H  0.9567348  0.5071452  0.5923304    0.00000       Uiso       1.00
       H88          H  0.9734582  0.5139236  0.5760134    0.00000       Uiso       1.00
      C179          C  0.8838314  0.7135033  0.0100410    0.00000       Uiso       1.00
      C180          C  0.8725498  0.7020759  0.0084247    0.00000       Uiso       1.00
      C181          C  0.8822412  0.6791630  0.0048921    0.00000       Uiso       1.00
      C182          C  0.9049242  0.7020759  0.0084247    0.00000       Uiso       1.00
      C183          C  0.9147060  0.6792369  0.0050333    0.00000       Uiso       1.00
      C184          C  0.9035602  0.6671810  0.0030665    0.00000       Uiso       1.00
       H89          H  0.9380193  0.4600645  0.0692027    0.00000       Uiso       1.00
       H90          H  0.9143829  0.7111487  0.0097613    0.00000       Uiso       1.00
       H91          H  0.8553548  0.7111487  0.0097613    0.00000       Uiso       1.00
      C185          C  0.9322194  0.4126983  0.0584291    0.00000       Uiso       1.00
      C186          C  0.9338356  0.4337910  0.0697106    0.00000       Uiso       1.00
      C187          C  0.9372273  0.4435732  0.0600455    0.00000       Uiso       1.00
      C188          C  0.9338359  0.4014168  0.0373365    0.00000       Uiso       1.00
      C189          C  0.9373688  0.4111084  0.0276479    0.00000       Uiso       1.00
      C190          C  0.9391949  0.4324270  0.0388116    0.00000       Uiso       1.00
       H92          H  0.8730605  0.4668872  0.8000186    0.00000       Uiso       1.00
       H93          H  0.9324993  0.3842220  0.0278778    0.00000       Uiso       1.00
       H94          H  0.9324988  0.4432496  0.0869054    0.00000       Uiso       1.00
      C191          C  0.1846355  0.4126985  0.0584289    0.00000       Uiso       1.00
      C192          C  0.1732083  0.4014170  0.0373363    0.00000       Uiso       1.00
      C193          C  0.1503692  0.4110810  0.0275555    0.00000       Uiso       1.00
      C194          C  0.1732080  0.4337912  0.0697105    0.00000       Uiso       1.00
      C195          C  0.1502948  0.4434786  0.0600209    0.00000       Uiso       1.00
      C196          C  0.1383129  0.4323141  0.0387026    0.00000       Uiso       1.00
       H95          H  0.9311976  0.6711106  0.0042422    0.00000       Uiso       1.00
       H96          H  0.1822807  0.4432498  0.0869052    0.00000       Uiso       1.00
       H97          H  0.1822812  0.3842221  0.0278777    0.00000       Uiso       1.00
      C197          C  0.8838332  0.4610893  0.7576267    0.00000       Uiso       1.00
      C198          C  0.9049258  0.4627055  0.7690540    0.00000       Uiso       1.00
      C199          C  0.9146146  0.4662376  0.7919666    0.00000       Uiso       1.00
      C200          C  0.8725514  0.4627055  0.7690540    0.00000       Uiso       1.00
      C201          C  0.8822172  0.4660959  0.7918926    0.00000       Uiso       1.00
      C202          C  0.9034519  0.4680624  0.8039480    0.00000       Uiso       1.00
       H98          H  0.1422414  0.4019236  0.0110653    0.00000       Uiso       1.00
      C203          C  0.9711292  0.4999965  0.9711326    0.00000       Uiso       1.00
       H99          H  0.8553565  0.4613689  0.7599813    0.00000       Uiso       1.00
      H100          H  0.9143845  0.4613689  0.7599812    0.00000       Uiso       1.00
        N9          N  0.8690646  0.6674507  0.0025154    0.00000       Uiso       1.00
       O17          O  0.8768676  0.6478930  0.9994842    0.00000       Uiso       1.00
       O18          O  0.8507035  0.6776206  0.0036410    0.00000       Uiso       1.00
       N10          N  0.9371254  0.4686174  0.8036789    0.00000       Uiso       1.00
       O19          O  0.9458492  0.4716471  0.8232360    0.00000       Uiso       1.00
       O20          O  0.9464407  0.4674945  0.7935092    0.00000       Uiso       1.00
       N11          N  0.9397472  0.3979294  0.0051365    0.00000       Uiso       1.00
       O21          O  0.9427769  0.4057311  0.9964104    0.00000       Uiso       1.00
       O22          O  0.9386227  0.3795675  0.9958212    0.00000       Uiso       1.00
       N12          N  0.1385874  0.4659884  0.0732051    0.00000       Uiso       1.00
       O23          O  0.1190296  0.4747152  0.0654076    0.00000       Uiso       1.00
       O24          O  0.1487616  0.4752995  0.0915664    0.00000       Uiso       1.00
      C204          C  0.9140308  0.6424342  0.9990284    0.00000       Uiso       1.00
      C205          C  0.9096122  0.6321825  0.0074139    0.00000       Uiso       1.00
      C206          C  0.9192172  0.6091841  0.0035588    0.00000       Uiso       1.00
      C207          C  0.9285880  0.6287621  0.9866855    0.00000       Uiso       1.00
      C208          C  0.9384456  0.6057965  0.9828941    0.00000       Uiso       1.00
      C209          C  0.9337265  0.5959445  0.9913097    0.00000       Uiso       1.00
      H101          H  0.9320354  0.6358728  0.9796292    0.00000       Uiso       1.00
      H102          H  0.8988877  0.6421200  0.0172350    0.00000       Uiso       1.00
      C210          C  0.9432328  0.4428986  0.0285760    0.00000       Uiso       1.00
      C211          C  0.9555839  0.4574480  0.0418044    0.00000       Uiso       1.00
      C212          C  0.9593750  0.4673068  0.0324890    0.00000       Uiso       1.00
      C213          C  0.9348395  0.4384894  0.0055225    0.00000       Uiso       1.00
      C214          C  0.9386938  0.4480952  0.9959854    0.00000       Uiso       1.00
      C215          C  0.9509507  0.4625964  0.0095039    0.00000       Uiso       1.00
      H103          H  0.9250097  0.4277732  0.9949099    0.00000       Uiso       1.00
      H104          H  0.9626470  0.4608885  0.0594190    0.00000       Uiso       1.00
      C216          C  0.1135668  0.4425480  0.0282310    0.00000       Uiso       1.00
      C217          C  0.0998969  0.4293169  0.0136735    0.00000       Uiso       1.00
      C218          C  0.0769291  0.4386325  0.0038130    0.00000       Uiso       1.00
      C219          C  0.1033144  0.4656024  0.0326482    0.00000       Uiso       1.00
      C220          C  0.0803175  0.4751383  0.0230433    0.00000       Uiso       1.00
      C221          C  0.0670771  0.4616213  0.0085330    0.00000       Uiso       1.00
      H105          H  0.1132453  0.4762149  0.0433691    0.00000       Uiso       1.00
      H106          H  0.1070153  0.4116998  0.0102301    0.00000       Uiso       1.00
      C222          C  0.9136893  0.4720994  0.8286939    0.00000       Uiso       1.00
      C223          C  0.9367437  0.4637078  0.8389447    0.00000       Uiso       1.00
      C224          C  0.9462817  0.4675647  0.8619430    0.00000       Uiso       1.00
      C225          C  0.9004617  0.4844485  0.8423662    0.00000       Uiso       1.00
      C226          C  0.9097781  0.4882391  0.8653315    0.00000       Uiso       1.00
      C227          C  0.9327634  0.4798189  0.8751826    0.00000       Uiso       1.00
      H107          H  0.8828481  0.4915085  0.8352548    0.00000       Uiso       1.00
      H108          H  0.9473484  0.4538789  0.8290036    0.00000       Uiso       1.00
      C228          C  0.9691858  0.4594189  0.8720238    0.00000       Uiso       1.00
      C229          C  0.9785542  0.4635631  0.8948869    0.00000       Uiso       1.00
      C230          C  0.9305417  0.4434231  0.9730809    0.00000       Uiso       1.00
      C231          C  0.9346830  0.4527758  0.9637125    0.00000       Uiso       1.00
      H109          H  0.9210531  0.4323674  0.9623489    0.00000       Uiso       1.00
      H110          H  0.9283131  0.4486591  0.9459891    0.00000       Uiso       1.00
      H111          H  0.9799141  0.4499317  0.8622085    0.00000       Uiso       1.00
      H112          H  0.9962770  0.4571981  0.9021272    0.00000       Uiso       1.00
      C232          C  0.9434047  0.5727870  0.9873226    0.00000       Uiso       1.00
      C233          C  0.9383684  0.5628480  0.9953519    0.00000       Uiso       1.00
      C234          C  0.9475253  0.5397430  0.9907976    0.00000       Uiso       1.00
      C235          C  0.9578294  0.5595673  0.9750173    0.00000       Uiso       1.00
      C236          C  0.9671006  0.5365688  0.9708325    0.00000       Uiso       1.00
      C237          C  0.9623297  0.5260008  0.9786249    0.00000       Uiso       1.00
      H113          H  0.9813014  0.5066731  0.0145923    0.00000       Uiso       1.00
      H114          H  0.0037968  0.5212396  0.9998546    0.00000       Uiso       1.00
      C238          C  0.9549361  0.4722750  0.0000113    0.00000       Uiso       1.00
      C239          C  0.9672493  0.4866930  0.0135210    0.00000       Uiso       1.00
      C240          C  0.9714335  0.4959659  0.0039787    0.00000       Uiso       1.00
      C241          C  0.9468964  0.4672474  0.9770054    0.00000       Uiso       1.00
      C242          C  0.9514527  0.4764035  0.9676117    0.00000       Uiso       1.00
      C243          C  0.9636358  0.4911985  0.9808461    0.00000       Uiso       1.00
      H115          H  0.9424147  0.5326616  0.9963264    0.00000       Uiso       1.00
      H116          H  0.9276691  0.5101446  0.9445167    0.00000       Uiso       1.00
      C244          C  0.0439210  0.4711168  0.9988555    0.00000       Uiso       1.00
      C245          C  0.0307007  0.4576064  0.9844283    0.00000       Uiso       1.00
      C246          C  0.0077017  0.4671507  0.9751571    0.00000       Uiso       1.00
      C247          C  0.0339835  0.4941237  0.0038950    0.00000       Uiso       1.00
      C248          C  0.0108771  0.5035187  0.9947395    0.00000       Uiso       1.00
      C249          C  0.9971339  0.4902836  0.9799328    0.00000       Uiso       1.00
      H117          H  0.9923758  0.4747935  0.9384702    0.00000       Uiso       1.00
      H118          H  0.9778146  0.5266088  0.9609719    0.00000       Uiso       1.00
      C250          C  0.9422553  0.4838058  0.8983395    0.00000       Uiso       1.00
      C251          C  0.9652612  0.4757725  0.9082791    0.00000       Uiso       1.00
      C252          C  0.9746543  0.4803293  0.9313859    0.00000       Uiso       1.00
      C253          C  0.9287439  0.4961121  0.9115596    0.00000       Uiso       1.00
      C254          C  0.9382854  0.5002947  0.9345586    0.00000       Uiso       1.00
      C255          C  0.9614176  0.4925041  0.9451277    0.00000       Uiso       1.00
      H119          H  0.9977376  0.4565392  0.9644347    0.00000       Uiso       1.00
      H120          H  0.9459155  0.4712999  0.9498901    0.00000       Uiso       1.00
      C256          C  0.0473755  0.5074164  0.0183760    0.00000       Uiso       1.00
      C257          C  0.0702383  0.4980456  0.0277265    0.00000       Uiso       1.00
      C258          C  0.0407266  0.4347082  0.9797826    0.00000       Uiso       1.00
      C259          C  0.0635319  0.4253493  0.9893706    0.00000       Uiso       1.00
      C260          C  0.9238873  0.5762393  0.0075567    0.00000       Uiso       1.00
      C261          C  0.9145338  0.5991029  0.0116995    0.00000       Uiso       1.00
      C262          C  0.9624766  0.5695943  0.9667923    0.00000       Uiso       1.00
      C263          C  0.9528885  0.5924026  0.9706560    0.00000       Uiso       1.00
      C264          C  0.9058456  0.5043398  0.9015325    0.00000       Uiso       1.00
      C265          C  0.8964914  0.5004796  0.8787261    0.00000       Uiso       1.00
      C266          C  0.9754834  0.4913309  0.0364192    0.00000       Uiso       1.00
      C267          C  0.9716211  0.4817418  0.0457751    0.00000       Uiso       1.00
      H121          H  0.9850733  0.5023043  0.0471463    0.00000       Uiso       1.00
      H122          H  0.9782898  0.4855879  0.0634662    0.00000       Uiso       1.00
      H123          H  0.0707074  0.4076570  0.9855179    0.00000       Uiso       1.00
      H124          H  0.0308918  0.4239807  0.9688026    0.00000       Uiso       1.00
      H125          H  0.0401373  0.5251416  0.0225012    0.00000       Uiso       1.00
      H126          H  0.0800512  0.5087766  0.0387897    0.00000       Uiso       1.00
      H127          H  0.9567402  0.5995834  0.9639965    0.00000       Uiso       1.00
      H128          H  0.9734568  0.5597618  0.9572097    0.00000       Uiso       1.00
      H129          H  0.9197626  0.5690020  0.0139177    0.00000       Uiso       1.00
      H130          H  0.9034697  0.6089199  0.0211802    0.00000       Uiso       1.00
      H131          H  0.8788009  0.5071427  0.8715491    0.00000       Uiso       1.00
      H132          H  0.8951178  0.5139205  0.9113673    0.00000       Uiso       1.00
      C268          C  0.7135026  0.8838324  0.0100410    0.00000       Uiso       1.00
      C269          C  0.7020752  0.9049252  0.0084248    0.00000       Uiso       1.00
      C270          C  0.6791623  0.9146141  0.0048921    0.00000       Uiso       1.00
      C271          C  0.7020752  0.8725507  0.0084248    0.00000       Uiso       1.00
      C272          C  0.6792363  0.8822165  0.0050333    0.00000       Uiso       1.00
      C273          C  0.6671804  0.9034516  0.0030666    0.00000       Uiso       1.00
      H133          H  0.4600643  0.1422433  0.0692027    0.00000       Uiso       1.00
      H134          H  0.7111480  0.8553558  0.0097614    0.00000       Uiso       1.00
      H135          H  0.7111480  0.9143839  0.0097614    0.00000       Uiso       1.00
      C274          C  0.4126982  0.1846359  0.0584291    0.00000       Uiso       1.00
      C275          C  0.4337909  0.1732083  0.0697107    0.00000       Uiso       1.00
      C276          C  0.4435730  0.1503696  0.0600456    0.00000       Uiso       1.00
      C277          C  0.4014167  0.1732086  0.0373365    0.00000       Uiso       1.00
      C278          C  0.4111083  0.1502958  0.0276480    0.00000       Uiso       1.00
      C279          C  0.4324269  0.1383146  0.0388116    0.00000       Uiso       1.00
      H136          H  0.4668866  0.9312004  0.8000187    0.00000       Uiso       1.00
      H137          H  0.3842219  0.1822816  0.0278779    0.00000       Uiso       1.00
      H138          H  0.4432494  0.1822811  0.0869054    0.00000       Uiso       1.00
      C280          C  0.4126982  0.9322205  0.0584290    0.00000       Uiso       1.00
      C281          C  0.4014167  0.9338369  0.0373364    0.00000       Uiso       1.00
      C282          C  0.4110808  0.9372314  0.0275556    0.00000       Uiso       1.00
      C283          C  0.4337909  0.9338366  0.0697106    0.00000       Uiso       1.00
      C284          C  0.4434782  0.9373731  0.0600210    0.00000       Uiso       1.00
      C285          C  0.4323138  0.9392015  0.0387026    0.00000       Uiso       1.00
      H139          H  0.6711100  0.8730602  0.0042423    0.00000       Uiso       1.00
      H140          H  0.4432494  0.9324998  0.0869053    0.00000       Uiso       1.00
      H141          H  0.3842219  0.9325004  0.0278778    0.00000       Uiso       1.00
      C286          C  0.4610887  0.8838344  0.7576267    0.00000       Uiso       1.00
      C287          C  0.4627049  0.8725526  0.7690541    0.00000       Uiso       1.00
      C288          C  0.4662369  0.8822439  0.7919666    0.00000       Uiso       1.00
      C289          C  0.4627049  0.9049271  0.7690541    0.00000       Uiso       1.00
      C290          C  0.4660953  0.9147090  0.7918926    0.00000       Uiso       1.00
      C291          C  0.4680618  0.9035630  0.8039480    0.00000       Uiso       1.00
      H142          H  0.4019233  0.9380267  0.0110654    0.00000       Uiso       1.00
      C292          C  0.4999958  0.9711334  0.9711327    0.00000       Uiso       1.00
      H143          H  0.4613683  0.9143859  0.7599813    0.00000       Uiso       1.00
      H144          H  0.4613683  0.8553577  0.7599813    0.00000       Uiso       1.00
       N13          N  0.6674501  0.9371265  0.0025154    0.00000       Uiso       1.00
       O25          O  0.6478921  0.9458498  0.9994842    0.00000       Uiso       1.00
       O26          O  0.6776200  0.9464431  0.0036410    0.00000       Uiso       1.00
       N14          N  0.4686168  0.8690655  0.8036790    0.00000       Uiso       1.00
       O27          O  0.4716465  0.8768686  0.8232361    0.00000       Uiso       1.00
       O28          O  0.4674939  0.8507035  0.7935093    0.00000       Uiso       1.00
       N15          N  0.3979293  0.1385854  0.0051366    0.00000       Uiso       1.00
       O29          O  0.4057307  0.1190278  0.9964104    0.00000       Uiso       1.00
       O30          O  0.3795671  0.1487564  0.9958212    0.00000       Uiso       1.00
       N16          N  0.4659880  0.9397547  0.0732052    0.00000       Uiso       1.00
       O31          O  0.4747148  0.9427883  0.0654077    0.00000       Uiso       1.00
       O32          O  0.4752991  0.9386304  0.0915665    0.00000       Uiso       1.00
      C293          C  0.6424333  0.9136893  0.9990284    0.00000       Uiso       1.00
      C294          C  0.6321819  0.9367453  0.0074139    0.00000       Uiso       1.00
      C295          C  0.6091835  0.9462837  0.0035588    0.00000       Uiso       1.00
      C296          C  0.6287613  0.9004615  0.9866855    0.00000       Uiso       1.00
      C297          C  0.6057956  0.9097783  0.9828942    0.00000       Uiso       1.00
      C298          C  0.5959436  0.9327648  0.9913097    0.00000       Uiso       1.00
      H145          H  0.6358720  0.8828472  0.9796293    0.00000       Uiso       1.00
      H146          H  0.6421194  0.9473534  0.0172350    0.00000       Uiso       1.00
      C299          C  0.4428984  0.1135697  0.0285761    0.00000       Uiso       1.00
      C300          C  0.4574478  0.0998974  0.0418045    0.00000       Uiso       1.00
      C301          C  0.4673066  0.0769321  0.0324890    0.00000       Uiso       1.00
      C302          C  0.4384892  0.1033190  0.0055226    0.00000       Uiso       1.00
      C303          C  0.4480947  0.0803217  0.9959854    0.00000       Uiso       1.00
      C304          C  0.4625962  0.0670822  0.0095039    0.00000       Uiso       1.00
      H147          H  0.4277727  0.1132524  0.9949099    0.00000       Uiso       1.00
      H148          H  0.4608883  0.1070080  0.0594190    0.00000       Uiso       1.00
      C305          C  0.4425477  0.9432424  0.0282311    0.00000       Uiso       1.00
      C306          C  0.4293166  0.9555860  0.0136735    0.00000       Uiso       1.00
      C307          C  0.4386322  0.9593779  0.0038130    0.00000       Uiso       1.00
      C308          C  0.4656020  0.9348575  0.0326483    0.00000       Uiso       1.00
      C309          C  0.4751379  0.9387137  0.0230433    0.00000       Uiso       1.00
      C310          C  0.4616209  0.9509611  0.0085331    0.00000       Uiso       1.00
      H149          H  0.4762145  0.9250348  0.0433692    0.00000       Uiso       1.00
      H150          H  0.4116995  0.9626414  0.0102302    0.00000       Uiso       1.00
      C311          C  0.4720987  0.9140340  0.8286939    0.00000       Uiso       1.00
      C312          C  0.4637071  0.9096220  0.8389448    0.00000       Uiso       1.00
      C313          C  0.4675641  0.9192249  0.8619431    0.00000       Uiso       1.00
      C314          C  0.4844479  0.9285846  0.8423663    0.00000       Uiso       1.00
      C315          C  0.4882384  0.9384426  0.8653316    0.00000       Uiso       1.00
      C316          C  0.4798183  0.9337282  0.8751826    0.00000       Uiso       1.00
      H151          H  0.4915079  0.9320270  0.8352549    0.00000       Uiso       1.00
      H152          H  0.4538783  0.8989052  0.8290037    0.00000       Uiso       1.00
      C317          C  0.4594182  0.9145472  0.8720239    0.00000       Uiso       1.00
      C318          C  0.4635625  0.9238973  0.8948870    0.00000       Uiso       1.00
      C319          C  0.4434226  0.0702419  0.9730809    0.00000       Uiso       1.00
      C320          C  0.4527754  0.0473796  0.9637125    0.00000       Uiso       1.00
      H153          H  0.4323670  0.0800544  0.9623489    0.00000       Uiso       1.00
      H154          H  0.4486586  0.0401432  0.9459891    0.00000       Uiso       1.00
      H155          H  0.4499311  0.9034908  0.8622085    0.00000       Uiso       1.00
      H156          H  0.4571975  0.9197795  0.9021272    0.00000       Uiso       1.00
      C321          C  0.5727863  0.9422570  0.9873227    0.00000       Uiso       1.00
      C322          C  0.5628473  0.9652615  0.9953520    0.00000       Uiso       1.00
      C323          C  0.5397423  0.9746553  0.9907976    0.00000       Uiso       1.00
      C324          C  0.5595666  0.9287470  0.9750173    0.00000       Uiso       1.00
      C325          C  0.5365680  0.9382895  0.9708325    0.00000       Uiso       1.00
      C326          C  0.5260001  0.9614207  0.9786249    0.00000       Uiso       1.00
      H157          H  0.5066727  0.9977437  0.0145923    0.00000       Uiso       1.00
      H158          H  0.5212389  0.9459446  0.9998546    0.00000       Uiso       1.00
      C327          C  0.4722748  0.0439257  0.0000113    0.00000       Uiso       1.00
      C328          C  0.4866928  0.0307040  0.0135210    0.00000       Uiso       1.00
      C329          C  0.4959657  0.0077046  0.0039787    0.00000       Uiso       1.00
      C330          C  0.4672469  0.0339872  0.9770054    0.00000       Uiso       1.00
      C331          C  0.4764030  0.0108814  0.9676118    0.00000       Uiso       1.00
      C332          C  0.4911979  0.9971380  0.9808462    0.00000       Uiso       1.00
      H159          H  0.5326609  0.9923761  0.9963264    0.00000       Uiso       1.00
      H160          H  0.5101439  0.9778299  0.9445168    0.00000       Uiso       1.00
      C333          C  0.4711161  0.9549442  0.9988555    0.00000       Uiso       1.00
      C334          C  0.4576058  0.9672478  0.9844283    0.00000       Uiso       1.00
      C335          C  0.4671501  0.9714316  0.9751571    0.00000       Uiso       1.00
      C336          C  0.4941233  0.9469144  0.0038951    0.00000       Uiso       1.00
      C337          C  0.5035180  0.9514703  0.9947396    0.00000       Uiso       1.00
      C338          C  0.4902829  0.9636416  0.9799328    0.00000       Uiso       1.00
      H161          H  0.4747929  0.9424279  0.9384703    0.00000       Uiso       1.00
      H162          H  0.5266081  0.9276750  0.9609720    0.00000       Uiso       1.00
      C339          C  0.4838052  0.9434061  0.8983396    0.00000       Uiso       1.00
      C340          C  0.4757719  0.9383729  0.9082791    0.00000       Uiso       1.00
      C341          C  0.4803286  0.9475294  0.9313860    0.00000       Uiso       1.00
      C342          C  0.4961115  0.9578310  0.9115596    0.00000       Uiso       1.00
      C343          C  0.5002941  0.9671056  0.9345587    0.00000       Uiso       1.00
      C344          C  0.4925034  0.9623329  0.9451278    0.00000       Uiso       1.00
      H163          H  0.4565386  0.9812844  0.9644347    0.00000       Uiso       1.00
      H164          H  0.4712995  0.0038007  0.9498901    0.00000       Uiso       1.00
      C345          C  0.5074160  0.9347104  0.0183761    0.00000       Uiso       1.00
      C346          C  0.4980452  0.9305688  0.0277265    0.00000       Uiso       1.00
      C347          C  0.4347076  0.9754746  0.9797826    0.00000       Uiso       1.00
      C348          C  0.4253487  0.9716160  0.9893707    0.00000       Uiso       1.00
      C349          C  0.5762388  0.9785562  0.0075568    0.00000       Uiso       1.00
      C350          C  0.5991023  0.9691888  0.0116995    0.00000       Uiso       1.00
      C351          C  0.5695935  0.9058479  0.9667924    0.00000       Uiso       1.00
      C352          C  0.5924019  0.8964913  0.9706560    0.00000       Uiso       1.00
      C353          C  0.5043392  0.9624748  0.9015326    0.00000       Uiso       1.00
      C354          C  0.5004789  0.9528832  0.8787261    0.00000       Uiso       1.00
      C355          C  0.4913307  0.0407298  0.0364192    0.00000       Uiso       1.00
      C356          C  0.4817416  0.0635368  0.0457751    0.00000       Uiso       1.00
      H165          H  0.5023040  0.0308934  0.0471464    0.00000       Uiso       1.00
      H166          H  0.4855877  0.0707128  0.0634663    0.00000       Uiso       1.00
      H167          H  0.4076564  0.9782802  0.9855179    0.00000       Uiso       1.00
      H168          H  0.4239801  0.9850572  0.9688028    0.00000       Uiso       1.00
      H169          H  0.5251412  0.9283486  0.0225012    0.00000       Uiso       1.00
      H170          H  0.5087762  0.9210879  0.0387897    0.00000       Uiso       1.00
      H171          H  0.5995826  0.8787995  0.9639966    0.00000       Uiso       1.00
      H172          H  0.5597611  0.8951177  0.9572098    0.00000       Uiso       1.00
      H173          H  0.5690015  0.9962791  0.0139178    0.00000       Uiso       1.00
      H174          H  0.6089193  0.9799165  0.0211802    0.00000       Uiso       1.00
      H175          H  0.5071419  0.9567336  0.8715491    0.00000       Uiso       1.00
      H176          H  0.5139198  0.9734565  0.9113673    0.00000       Uiso       1.00
      C357          C  0.7135057  0.8838359  0.5872993    0.00000       Uiso       1.00
      C358          C  0.7020785  0.8725544  0.5662068    0.00000       Uiso       1.00
      C359          C  0.6791658  0.8822460  0.5565181    0.00000       Uiso       1.00
      C360          C  0.7020782  0.9049286  0.5985810    0.00000       Uiso       1.00
      C361          C  0.6792394  0.9147105  0.5889153    0.00000       Uiso       1.00
      C362          C  0.6671836  0.9035648  0.5676805    0.00000       Uiso       1.00
      H177          H  0.4600702  0.9380268  0.3288900    0.00000       Uiso       1.00
      H178          H  0.7111509  0.9143872  0.6157757    0.00000       Uiso       1.00
      H179          H  0.7111515  0.8553596  0.5567482    0.00000       Uiso       1.00
      C363          C  0.4127043  0.9322271  0.2864979    0.00000       Uiso       1.00
      C364          C  0.4337971  0.9338433  0.2979252    0.00000       Uiso       1.00
      C365          C  0.4435789  0.9372347  0.3207638    0.00000       Uiso       1.00
      C366          C  0.4014226  0.9338433  0.2979252    0.00000       Uiso       1.00
      C367          C  0.4111139  0.9373760  0.3208379    0.00000       Uiso       1.00
      C368          C  0.4324325  0.9392020  0.3328189    0.00000       Uiso       1.00
      H180          H  0.4668889  0.8730640  0.5399334    0.00000       Uiso       1.00
      H181          H  0.3842278  0.9325067  0.2888525    0.00000       Uiso       1.00
      H182          H  0.4432558  0.9325067  0.2888525    0.00000       Uiso       1.00
      C369          C  0.4127024  0.1846400  0.5389114    0.00000       Uiso       1.00
      C370          C  0.4014207  0.1732126  0.5372951    0.00000       Uiso       1.00
      C371          C  0.4110847  0.1503734  0.5339008    0.00000       Uiso       1.00
      C372          C  0.4337952  0.1732126  0.5372951    0.00000       Uiso       1.00
      C373          C  0.4434825  0.1502993  0.5337588    0.00000       Uiso       1.00
      C374          C  0.4323178  0.1383172  0.5319306    0.00000       Uiso       1.00
      H183          H  0.6711129  0.9312020  0.5980715    0.00000       Uiso       1.00
      H184          H  0.4432539  0.1822854  0.5386317    0.00000       Uiso       1.00
      H185          H  0.3842258  0.1822854  0.5386317    0.00000       Uiso       1.00
      C375          C  0.4610902  0.8838359  0.5872993    0.00000       Uiso       1.00
      C376          C  0.4627064  0.9049286  0.5985809    0.00000       Uiso       1.00
      C377          C  0.4662388  0.9146177  0.5888895    0.00000       Uiso       1.00
      C378          C  0.4627067  0.8725544  0.5662068    0.00000       Uiso       1.00
      C379          C  0.4660974  0.8822205  0.5564247    0.00000       Uiso       1.00
      C380          C  0.4680639  0.9034553  0.5675705    0.00000       Uiso       1.00
      H186          H  0.4019271  0.1422454  0.5331056    0.00000       Uiso       1.00
      C381          C  0.5000000  0.9711348  0.4999993    0.00000       Uiso       1.00
      H187          H  0.4613701  0.8553596  0.5567482    0.00000       Uiso       1.00
      H188          H  0.4613696  0.9143872  0.6157756    0.00000       Uiso       1.00
       N17          N  0.6674536  0.8690695  0.5340060    0.00000       Uiso       1.00
       O33          O  0.6478964  0.8768731  0.5252824    0.00000       Uiso       1.00
       O34          O  0.6776237  0.8507085  0.5246894    0.00000       Uiso       1.00
       N18          N  0.4686185  0.9371285  0.6020677    0.00000       Uiso       1.00
       O35          O  0.4716485  0.9458526  0.5942644    0.00000       Uiso       1.00
       O36          O  0.4674955  0.9464436  0.6204296    0.00000       Uiso       1.00
       N19          N  0.3979346  0.9397539  0.3325484    0.00000       Uiso       1.00
       O37          O  0.4057364  0.9427840  0.3521055    0.00000       Uiso       1.00
       O38          O  0.3795730  0.9386301  0.3223772    0.00000       Uiso       1.00
       N20          N  0.4659924  0.1385920  0.5313770    0.00000       Uiso       1.00
       O39          O  0.4747192  0.1190342  0.5283436    0.00000       Uiso       1.00
       O40          O  0.4753036  0.1487663  0.5325012    0.00000       Uiso       1.00
      C382          C  0.6424373  0.9140362  0.5574425    0.00000       Uiso       1.00
      C383          C  0.6321856  0.9096172  0.5343871    0.00000       Uiso       1.00
      C384          C  0.6091871  0.9192223  0.5248488    0.00000       Uiso       1.00
      C385          C  0.6287650  0.9285932  0.5706703    0.00000       Uiso       1.00
      C386          C  0.6057994  0.9384509  0.5613536    0.00000       Uiso       1.00
      C387          C  0.5959478  0.9337320  0.5383673    0.00000       Uiso       1.00
      H189          H  0.6358755  0.9320403  0.5882844    0.00000       Uiso       1.00
      H190          H  0.6421232  0.8988928  0.5237790    0.00000       Uiso       1.00
      C388          C  0.4429037  0.9432396  0.3575636    0.00000       Uiso       1.00
      C389          C  0.4574530  0.9555907  0.3712357    0.00000       Uiso       1.00
      C390          C  0.4673115  0.9593816  0.3942007    0.00000       Uiso       1.00
      C391          C  0.4384942  0.9348460  0.3678144    0.00000       Uiso       1.00
      C392          C  0.4481000  0.9387007  0.3908111    0.00000       Uiso       1.00
      C393          C  0.4626009  0.9509569  0.4040509    0.00000       Uiso       1.00
      H191          H  0.4277783  0.9250168  0.3578809    0.00000       Uiso       1.00
      H192          H  0.4608938  0.9626541  0.3641250    0.00000       Uiso       1.00
      C394          C  0.4425517  0.1135710  0.5278898    0.00000       Uiso       1.00
      C395          C  0.4293206  0.0999010  0.5155464    0.00000       Uiso       1.00
      C396          C  0.4386361  0.0769332  0.5117547    0.00000       Uiso       1.00
      C397          C  0.4656060  0.1033185  0.5362746    0.00000       Uiso       1.00
      C398          C  0.4751418  0.0803216  0.5324185    0.00000       Uiso       1.00
      C399          C  0.4616249  0.0670812  0.5201714    0.00000       Uiso       1.00
      H193          H  0.4762185  0.1132495  0.5460972    0.00000       Uiso       1.00
      H194          H  0.4117035  0.1070195  0.5084912    0.00000       Uiso       1.00
      C400          C  0.4721012  0.9136930  0.5570993    0.00000       Uiso       1.00
      C401          C  0.4637097  0.9367476  0.5615113    0.00000       Uiso       1.00
      C402          C  0.4675669  0.9462859  0.5519083    0.00000       Uiso       1.00
      C403          C  0.4844505  0.9004657  0.5425487    0.00000       Uiso       1.00
      C404          C  0.4882414  0.9097824  0.5326906    0.00000       Uiso       1.00
      C405          C  0.4798213  0.9327678  0.5374049    0.00000       Uiso       1.00
      H195          H  0.4915105  0.8828520  0.5391065    0.00000       Uiso       1.00
      H196          H  0.4538806  0.9473521  0.5722281    0.00000       Uiso       1.00
      C406          C  0.4594211  0.9691901  0.5565858    0.00000       Uiso       1.00
      C407          C  0.4635655  0.9785588  0.5472355    0.00000       Uiso       1.00
      C408          C  0.4434276  0.9305482  0.4008911    0.00000       Uiso       1.00
      C409          C  0.4527801  0.9346892  0.4237533    0.00000       Uiso       1.00
      H197          H  0.4323720  0.9210596  0.3910789    0.00000       Uiso       1.00
      H198          H  0.4486631  0.9283191  0.4309897    0.00000       Uiso       1.00
      H199          H  0.4499338  0.9799182  0.5676420    0.00000       Uiso       1.00
      H200          H  0.4572006  0.9962816  0.5513532    0.00000       Uiso       1.00
      C410          C  0.5727904  0.9434103  0.5288753    0.00000       Uiso       1.00
      C411          C  0.5628517  0.9383743  0.5058709    0.00000       Uiso       1.00
      C412          C  0.5397467  0.9475312  0.4964772    0.00000       Uiso       1.00
      C413          C  0.5595705  0.9578346  0.5423852    0.00000       Uiso       1.00
      C414          C  0.5365719  0.9671059  0.5328428    0.00000       Uiso       1.00
      C415          C  0.5260043  0.9623353  0.5097117    0.00000       Uiso       1.00
      H201          H  0.5066770  0.9813071  0.4733893    0.00000       Uiso       1.00
      H202          H  0.5212433  0.0038012  0.5251875    0.00000       Uiso       1.00
      C416          C  0.4722791  0.9549420  0.4272072    0.00000       Uiso       1.00
      C417          C  0.4866971  0.9672552  0.4404286    0.00000       Uiso       1.00
      C418          C  0.4959697  0.9714392  0.4634278    0.00000       Uiso       1.00
      C419          C  0.4672517  0.9469026  0.4371454    0.00000       Uiso       1.00
      C420          C  0.4764074  0.9514586  0.4602511    0.00000       Uiso       1.00
      C421          C  0.4912024  0.9636418  0.4739948    0.00000       Uiso       1.00
      H203          H  0.5326656  0.9424207  0.4787565    0.00000       Uiso       1.00
      H204          H  0.5101480  0.9276745  0.4933031    0.00000       Uiso       1.00
      C422          C  0.4711206  0.0439256  0.5161881    0.00000       Uiso       1.00
      C423          C  0.4576102  0.0307052  0.5038846    0.00000       Uiso       1.00
      C424          C  0.4671545  0.0077061  0.4997011    0.00000       Uiso       1.00
      C425          C  0.4941271  0.0339875  0.5242181    0.00000       Uiso       1.00
      C426          C  0.5035225  0.0108815  0.5196620    0.00000       Uiso       1.00
      C427          C  0.4902872  0.9971396  0.5074910    0.00000       Uiso       1.00
      H205          H  0.4747965  0.9923809  0.5287048    0.00000       Uiso       1.00
      H206          H  0.5266119  0.9778198  0.5434573    0.00000       Uiso       1.00
      C428          C  0.4838085  0.9422600  0.5277269    0.00000       Uiso       1.00
      C429          C  0.4757752  0.9652660  0.5327600    0.00000       Uiso       1.00
      C430          C  0.4803323  0.9746594  0.5236034    0.00000       Uiso       1.00
      C431          C  0.4961151  0.9287488  0.5133021    0.00000       Uiso       1.00
      C432          C  0.5002980  0.9382907  0.5040274    0.00000       Uiso       1.00
      C433          C  0.4925074  0.9614229  0.5087999    0.00000       Uiso       1.00
      H207          H  0.4565428  0.9977432  0.4898484    0.00000       Uiso       1.00
      H208          H  0.4713036  0.9459213  0.4673318    0.00000       Uiso       1.00
      C434          C  0.5074199  0.0473795  0.5364218    0.00000       Uiso       1.00
      C435          C  0.4980491  0.0702423  0.5405633    0.00000       Uiso       1.00
      C436          C  0.4347121  0.0407311  0.4956580    0.00000       Uiso       1.00
      C437          C  0.4253533  0.0635366  0.4995165    0.00000       Uiso       1.00
      C438          C  0.5762429  0.9238926  0.4925766    0.00000       Uiso       1.00
      C439          C  0.5991063  0.9145392  0.5019438    0.00000       Uiso       1.00
      C440          C  0.5695972  0.9624817  0.5652841    0.00000       Uiso       1.00
      C441          C  0.5924054  0.9528935  0.5746406    0.00000       Uiso       1.00
      C442          C  0.5043427  0.9058505  0.5086584    0.00000       Uiso       1.00
      C443          C  0.5004821  0.8964959  0.5182502    0.00000       Uiso       1.00
      C444          C  0.4913353  0.9754897  0.4304027    0.00000       Uiso       1.00
      C445          C  0.4817466  0.9716277  0.4075958    0.00000       Uiso       1.00
      H209          H  0.5023087  0.9850796  0.4402388    0.00000       Uiso       1.00
      H210          H  0.4855929  0.9782967  0.4004197    0.00000       Uiso       1.00
      H211          H  0.4076610  0.0707120  0.4928524    0.00000       Uiso       1.00
      H212          H  0.4239846  0.0308963  0.4860757    0.00000       Uiso       1.00
      H213          H  0.5251450  0.0401412  0.5427835    0.00000       Uiso       1.00
      H214          H  0.5087801  0.0800552  0.5500441    0.00000       Uiso       1.00
      H215          H  0.5995859  0.9567449  0.5923323    0.00000       Uiso       1.00
      H216          H  0.5597644  0.9734617  0.5760143    0.00000       Uiso       1.00
      H217          H  0.5690057  0.9197682  0.4748538    0.00000       Uiso       1.00
      H218          H  0.6089234  0.9034752  0.4912162    0.00000       Uiso       1.00
      H219          H  0.5071452  0.8788054  0.5143998    0.00000       Uiso       1.00
      H220          H  0.5139235  0.8951228  0.4976767    0.00000       Uiso       1.00
      C446          C  0.8838314  0.8838324  0.0100410    0.00000       Uiso       1.00
      C447          C  0.9049242  0.8725507  0.0084247    0.00000       Uiso       1.00
      C448          C  0.9146130  0.8822422  0.0048921    0.00000       Uiso       1.00
      C449          C  0.8725497  0.9049253  0.0084247    0.00000       Uiso       1.00
      C450          C  0.8822154  0.9147071  0.0050333    0.00000       Uiso       1.00
      C451          C  0.9034505  0.9035612  0.0030665    0.00000       Uiso       1.00
      H221          H  0.1422431  0.9380204  0.0692027    0.00000       Uiso       1.00
      H222          H  0.8553547  0.9143839  0.0097614    0.00000       Uiso       1.00
      H223          H  0.9143828  0.8553559  0.0097614    0.00000       Uiso       1.00
      C452          C  0.1846357  0.9322205  0.0584291    0.00000       Uiso       1.00
      C453          C  0.1732082  0.9338366  0.0697106    0.00000       Uiso       1.00
      C454          C  0.1503694  0.9372284  0.0600455    0.00000       Uiso       1.00
      C455          C  0.1732085  0.9338370  0.0373365    0.00000       Uiso       1.00
      C456          C  0.1502956  0.9373699  0.0276479    0.00000       Uiso       1.00
      C457          C  0.1383145  0.9391959  0.0388116    0.00000       Uiso       1.00
      H224          H  0.9311990  0.8730617  0.8000186    0.00000       Uiso       1.00
      H225          H  0.1822814  0.9325004  0.0278778    0.00000       Uiso       1.00
      H226          H  0.1822809  0.9324999  0.0869054    0.00000       Uiso       1.00
      C458          C  0.9322194  0.1846356  0.0584289    0.00000       Uiso       1.00
      C459          C  0.9338359  0.1732084  0.0373363    0.00000       Uiso       1.00
      C460          C  0.9372304  0.1503693  0.0275556    0.00000       Uiso       1.00
      C461          C  0.9338356  0.1732081  0.0697105    0.00000       Uiso       1.00
      C462          C  0.9373721  0.1502949  0.0600209    0.00000       Uiso       1.00
      C463          C  0.9392006  0.1383130  0.0387026    0.00000       Uiso       1.00
      H227          H  0.8730592  0.9311987  0.0042423    0.00000       Uiso       1.00
      H228          H  0.9324989  0.1822808  0.0869053    0.00000       Uiso       1.00
      H229          H  0.9324993  0.1822814  0.0278777    0.00000       Uiso       1.00
      C464          C  0.8838331  0.8838344  0.7576267    0.00000       Uiso       1.00
      C465          C  0.8725512  0.9049271  0.7690540    0.00000       Uiso       1.00
      C466          C  0.8822426  0.9146159  0.7919666    0.00000       Uiso       1.00
      C467          C  0.9049256  0.8725526  0.7690540    0.00000       Uiso       1.00
      C468          C  0.9147077  0.8822184  0.7918926    0.00000       Uiso       1.00
      C469          C  0.9035616  0.9034532  0.8039480    0.00000       Uiso       1.00
      H230          H  0.9380257  0.1422415  0.0110654    0.00000       Uiso       1.00
      C470          C  0.9711320  0.9711305  0.9711327    0.00000       Uiso       1.00
      H231          H  0.9143845  0.8553578  0.7599813    0.00000       Uiso       1.00
      H232          H  0.8553564  0.9143859  0.7599813    0.00000       Uiso       1.00
       N21          N  0.9371253  0.8690655  0.0025154    0.00000       Uiso       1.00
       O41          O  0.9458483  0.8768689  0.9994842    0.00000       Uiso       1.00
       O42          O  0.9464419  0.8507045  0.0036410    0.00000       Uiso       1.00
       N22          N  0.8690642  0.9371267  0.8036789    0.00000       Uiso       1.00
       O43          O  0.8768674  0.9458506  0.8232361    0.00000       Uiso       1.00
       O44          O  0.8507022  0.9464420  0.7935092    0.00000       Uiso       1.00
       N23          N  0.1385853  0.9397482  0.0051365    0.00000       Uiso       1.00
       O45          O  0.1190274  0.9427782  0.9964104    0.00000       Uiso       1.00
       O46          O  0.1487560  0.9386240  0.9958212    0.00000       Uiso       1.00
       N24          N  0.9397537  0.1385875  0.0732052    0.00000       Uiso       1.00
       O47          O  0.9427873  0.1190297  0.0654077    0.00000       Uiso       1.00
       O48          O  0.9386294  0.1487616  0.0915664    0.00000       Uiso       1.00
      C471          C  0.9136880  0.9140322  0.9990284    0.00000       Uiso       1.00
      C472          C  0.9367441  0.9096133  0.0074139    0.00000       Uiso       1.00
      C473          C  0.9462825  0.9192183  0.0035588    0.00000       Uiso       1.00
      C474          C  0.9004602  0.9285893  0.9866855    0.00000       Uiso       1.00
      C475          C  0.9097770  0.9384470  0.9828942    0.00000       Uiso       1.00
      C476          C  0.9327634  0.9337279  0.9913097    0.00000       Uiso       1.00
      H233          H  0.8828459  0.9320368  0.9796293    0.00000       Uiso       1.00
      H234          H  0.9473523  0.8988886  0.0172350    0.00000       Uiso       1.00
      C477          C  0.1135696  0.9432338  0.0285760    0.00000       Uiso       1.00
      C478          C  0.0998973  0.9555850  0.0418044    0.00000       Uiso       1.00
      C479          C  0.0769321  0.9593762  0.0324890    0.00000       Uiso       1.00
      C480          C  0.1033190  0.9348406  0.0055225    0.00000       Uiso       1.00
      C481          C  0.0803214  0.9386952  0.9959854    0.00000       Uiso       1.00
      C482          C  0.0670821  0.9509518  0.0095039    0.00000       Uiso       1.00
      H235          H  0.1132520  0.9250110  0.9949099    0.00000       Uiso       1.00
      H236          H  0.1070079  0.9626481  0.0594190    0.00000       Uiso       1.00
      C483          C  0.9432414  0.1135668  0.0282311    0.00000       Uiso       1.00
      C484          C  0.9555850  0.0998969  0.0136735    0.00000       Uiso       1.00
      C485          C  0.9593769  0.0769291  0.0038130    0.00000       Uiso       1.00
      C486          C  0.9348565  0.1033144  0.0326482    0.00000       Uiso       1.00
      C487          C  0.9387127  0.0803175  0.0230433    0.00000       Uiso       1.00
      C488          C  0.9509602  0.0670771  0.0085330    0.00000       Uiso       1.00
      H237          H  0.9250339  0.1132454  0.0433691    0.00000       Uiso       1.00
      H238          H  0.9626404  0.1070153  0.0102301    0.00000       Uiso       1.00
      C489          C  0.9140327  0.9136906  0.8286939    0.00000       Uiso       1.00
      C490          C  0.9096206  0.9367450  0.8389448    0.00000       Uiso       1.00
      C491          C  0.9192234  0.9462831  0.8619431    0.00000       Uiso       1.00
      C492          C  0.9285833  0.9004630  0.8423662    0.00000       Uiso       1.00
      C493          C  0.9384412  0.9097794  0.8653315    0.00000       Uiso       1.00
      C494          C  0.9337268  0.9327648  0.8751826    0.00000       Uiso       1.00
      H239          H  0.9320256  0.8828493  0.8352548    0.00000       Uiso       1.00
      H240          H  0.8989038  0.9473498  0.8290036    0.00000       Uiso       1.00
      C495          C  0.9145458  0.9691872  0.8720238    0.00000       Uiso       1.00
      C496          C  0.9238960  0.9785556  0.8948870    0.00000       Uiso       1.00
      C497          C  0.0702416  0.9305429  0.9730809    0.00000       Uiso       1.00
      C498          C  0.0473793  0.9346843  0.9637125    0.00000       Uiso       1.00
      H241          H  0.0800541  0.9210544  0.9623489    0.00000       Uiso       1.00
      H242          H  0.0401429  0.9283144  0.9459891    0.00000       Uiso       1.00
      H243          H  0.9034895  0.9799155  0.8622085    0.00000       Uiso       1.00
      H244          H  0.9197782  0.9962784  0.9021272    0.00000       Uiso       1.00
      C499          C  0.9422556  0.9434061  0.9873226    0.00000       Uiso       1.00
      C500          C  0.9652600  0.9383698  0.9953520    0.00000       Uiso       1.00
      C501          C  0.9746539  0.9475266  0.9907976    0.00000       Uiso       1.00
      C502          C  0.9287456  0.9578307  0.9750173    0.00000       Uiso       1.00
      C503          C  0.9382882  0.9671019  0.9708325    0.00000       Uiso       1.00
      C504          C  0.9614193  0.9623311  0.9786249    0.00000       Uiso       1.00
      H245          H  0.9977424  0.9813025  0.0145923    0.00000       Uiso       1.00
      H246          H  0.9459434  0.0037969  0.9998546    0.00000       Uiso       1.00
      C505          C  0.0439257  0.9549372  0.0000113    0.00000       Uiso       1.00
      C506          C  0.0307040  0.9672504  0.0135210    0.00000       Uiso       1.00
      C507          C  0.0077047  0.9714347  0.0039787    0.00000       Uiso       1.00
      C508          C  0.0339870  0.9468977  0.9770054    0.00000       Uiso       1.00
      C509          C  0.0108811  0.9514540  0.9676117    0.00000       Uiso       1.00
      C510          C  0.9971367  0.9636372  0.9808462    0.00000       Uiso       1.00
      H247          H  0.9923747  0.9424160  0.9963264    0.00000       Uiso       1.00
      H248          H  0.9778285  0.9276705  0.9445168    0.00000       Uiso       1.00
      C511          C  0.9549429  0.0439212  0.9988555    0.00000       Uiso       1.00
      C512          C  0.9672467  0.0307009  0.9844283    0.00000       Uiso       1.00
      C513          C  0.9714303  0.0077018  0.9751571    0.00000       Uiso       1.00
      C514          C  0.9469135  0.0339835  0.0038950    0.00000       Uiso       1.00
      C515          C  0.9514690  0.0108773  0.9947395    0.00000       Uiso       1.00
      C516          C  0.9636401  0.9971353  0.9799328    0.00000       Uiso       1.00
      H249          H  0.9424264  0.9923772  0.9384702    0.00000       Uiso       1.00
      H250          H  0.9276736  0.9778160  0.9609719    0.00000       Uiso       1.00
      C517          C  0.9434047  0.9422566  0.8983395    0.00000       Uiso       1.00
      C518          C  0.9383715  0.9652625  0.9082791    0.00000       Uiso       1.00
      C519          C  0.9475280  0.9746557  0.9313860    0.00000       Uiso       1.00
      C520          C  0.9578296  0.9287452  0.9115596    0.00000       Uiso       1.00
      C521          C  0.9671041  0.9382867  0.9345586    0.00000       Uiso       1.00
      C522          C  0.9623315  0.9614189  0.9451277    0.00000       Uiso       1.00
      H251          H  0.9812829  0.9977390  0.9644347    0.00000       Uiso       1.00
      H252          H  0.0038005  0.9459170  0.9498901    0.00000       Uiso       1.00
      C523          C  0.9347094  0.0473755  0.0183760    0.00000       Uiso       1.00
      C524          C  0.9305679  0.0702383  0.0277265    0.00000       Uiso       1.00
      C525          C  0.9754733  0.0407267  0.9797826    0.00000       Uiso       1.00
      C526          C  0.9716147  0.0635321  0.9893707    0.00000       Uiso       1.00
      C527          C  0.9785551  0.9238883  0.0075567    0.00000       Uiso       1.00
      C528          C  0.9691877  0.9145349  0.0116995    0.00000       Uiso       1.00
      C529          C  0.9058466  0.9624780  0.9667924    0.00000       Uiso       1.00
      C530          C  0.8964900  0.9528899  0.9706560    0.00000       Uiso       1.00
      C531          C  0.9624733  0.9058469  0.9015326    0.00000       Uiso       1.00
      C532          C  0.9528818  0.8964927  0.8787261    0.00000       Uiso       1.00
      C533          C  0.0407297  0.9754845  0.0364192    0.00000       Uiso       1.00
      C534          C  0.0635368  0.9716223  0.0457751    0.00000       Uiso       1.00
      H253          H  0.0308935  0.9850745  0.0471463    0.00000       Uiso       1.00
      H254          H  0.0707128  0.9782910  0.0634662    0.00000       Uiso       1.00
      H255          H  0.9782789  0.0707076  0.9855179    0.00000       Uiso       1.00
      H256          H  0.9850559  0.0308920  0.9688026    0.00000       Uiso       1.00
      H257          H  0.9283476  0.0401372  0.0225012    0.00000       Uiso       1.00
      H258          H  0.9210869  0.0800512  0.0387897    0.00000       Uiso       1.00
      H259          H  0.8787982  0.9567415  0.9639965    0.00000       Uiso       1.00
      H260          H  0.8951164  0.9734582  0.9572098    0.00000       Uiso       1.00
      H261          H  0.9962779  0.9197636  0.0139177    0.00000       Uiso       1.00
      H262          H  0.9799154  0.9034707  0.0211802    0.00000       Uiso       1.00
      H263          H  0.9567322  0.8788022  0.8715491    0.00000       Uiso       1.00
      H264          H  0.9734551  0.8951190  0.9113673    0.00000       Uiso       1.00
        B1          B  0.8725448  0.4585975  0.5985890    0.00000       Uiso       1.00
        B2          B  0.7385785  0.4585975  0.5985890    0.00000       Uiso       1.00
        B3          B  0.8725436  0.4585962  0.7325541    0.00000       Uiso       1.00
      C535          C  0.8283406  0.4571078  0.6234889    0.00000       Uiso       1.00
      C536          C  0.8476527  0.4574938  0.6052133    0.00000       Uiso       1.00
      H265          H  0.8151920  0.4571809  0.5893419    0.00000       Uiso       1.00
       O49          O  0.8500301  0.4581551  0.5882545    0.00000       Uiso       1.00
      C537          C  0.8288886  0.4572617  0.6046628    0.00000       Uiso       1.00
      C538          C  0.8091716  0.4571076  0.6427925    0.00000       Uiso       1.00
      C539          C  0.7711983  0.4574936  0.6234808    0.00000       Uiso       1.00
      H266          H  0.7881002  0.4571803  0.6559413    0.00000       Uiso       1.00
       O50          O  0.7512010  0.4581547  0.6211036    0.00000       Uiso       1.00
      C540          C  0.7896438  0.4572614  0.6422448    0.00000       Uiso       1.00
      C541          C  0.8476441  0.4571074  0.6619612    0.00000       Uiso       1.00
      C542          C  0.8659195  0.4574929  0.6999344    0.00000       Uiso       1.00
      H267          H  0.8817912  0.4571801  0.6830322    0.00000       Uiso       1.00
       O51          O  0.8828783  0.4581538  0.7199314    0.00000       Uiso       1.00
      C543          C  0.8664702  0.4572611  0.6814888    0.00000       Uiso       1.00
      C544          C  0.8091718  0.4571078  0.6234889    0.00000       Uiso       1.00
      C545          C  0.7711985  0.4574938  0.6052133    0.00000       Uiso       1.00
       O52          O  0.7512013  0.4581550  0.5882545    0.00000       Uiso       1.00
      H268          H  0.7881009  0.4571809  0.5893419    0.00000       Uiso       1.00
      C546          C  0.7896442  0.4572617  0.6046628    0.00000       Uiso       1.00
      C547          C  0.8476443  0.4571076  0.6427925    0.00000       Uiso       1.00
      C548          C  0.8659202  0.4574937  0.6234808    0.00000       Uiso       1.00
      H269          H  0.8817915  0.4571804  0.6559413    0.00000       Uiso       1.00
       O53          O  0.8828791  0.4581548  0.6211036    0.00000       Uiso       1.00
      C549          C  0.8664705  0.4572614  0.6422448    0.00000       Uiso       1.00
      C550          C  0.8283403  0.4571074  0.6619612    0.00000       Uiso       1.00
      C551          C  0.8476518  0.4574929  0.6999344    0.00000       Uiso       1.00
      H270          H  0.8151912  0.4571801  0.6830322    0.00000       Uiso       1.00
       O54          O  0.8500289  0.4581538  0.7199314    0.00000       Uiso       1.00
      C552          C  0.8288879  0.4572611  0.6814888    0.00000       Uiso       1.00
        B4          B  0.4585956  0.8725448  0.7325541    0.00000       Uiso       1.00
        B5          B  0.4585968  0.7385795  0.5985890    0.00000       Uiso       1.00
        B6          B  0.4585968  0.8725460  0.5985890    0.00000       Uiso       1.00
      C553          C  0.4571068  0.8283415  0.6619613    0.00000       Uiso       1.00
      C554          C  0.4574923  0.8476530  0.6999344    0.00000       Uiso       1.00
      H271          H  0.4571795  0.8151923  0.6830323    0.00000       Uiso       1.00
       O55          O  0.4581532  0.8500301  0.7199315    0.00000       Uiso       1.00
      C555          C  0.4572604  0.8288890  0.6814888    0.00000       Uiso       1.00
      C556          C  0.4571071  0.8091729  0.6234890    0.00000       Uiso       1.00
      C557          C  0.4574932  0.7711995  0.6052133    0.00000       Uiso       1.00
      H272          H  0.4571803  0.7881020  0.5893419    0.00000       Uiso       1.00
       O56          O  0.4581544  0.7512023  0.5882545    0.00000       Uiso       1.00
      C558          C  0.4572611  0.7896453  0.6046629    0.00000       Uiso       1.00
      C559          C  0.4571070  0.8476454  0.6427925    0.00000       Uiso       1.00
      C560          C  0.4574930  0.8659214  0.6234808    0.00000       Uiso       1.00
      H273          H  0.4571797  0.8817927  0.6559414    0.00000       Uiso       1.00
       O57          O  0.4581541  0.8828804  0.6211036    0.00000       Uiso       1.00
      C561          C  0.4572608  0.8664716  0.6422448    0.00000       Uiso       1.00
      C562          C  0.4571070  0.8091727  0.6427925    0.00000       Uiso       1.00
      C563          C  0.4574930  0.7711993  0.6234808    0.00000       Uiso       1.00
       O58          O  0.4581542  0.7512020  0.6211036    0.00000       Uiso       1.00
      H274          H  0.4571797  0.7881014  0.6559414    0.00000       Uiso       1.00
      C564          C  0.4572608  0.7896449  0.6422448    0.00000       Uiso       1.00
      C565          C  0.4571068  0.8476453  0.6619613    0.00000       Uiso       1.00
      C566          C  0.4574923  0.8659207  0.6999344    0.00000       Uiso       1.00
      H275          H  0.4571795  0.8817924  0.6830323    0.00000       Uiso       1.00
       O59          O  0.4581532  0.8828795  0.7199315    0.00000       Uiso       1.00
      C567          C  0.4572604  0.8664713  0.6814888    0.00000       Uiso       1.00
      C568          C  0.4571072  0.8283418  0.6234890    0.00000       Uiso       1.00
      C569          C  0.4574932  0.8476539  0.6052133    0.00000       Uiso       1.00
      H276          H  0.4571803  0.8151932  0.5893419    0.00000       Uiso       1.00
       O60          O  0.4581544  0.8500313  0.5882545    0.00000       Uiso       1.00
      C570          C  0.4572611  0.8288897  0.6046629    0.00000       Uiso       1.00
      C571          C  0.3767616  0.3949150  0.5429369    0.00000       Uiso       1.00
      C572          C  0.3580305  0.3959062  0.5440657    0.00000       Uiso       1.00
      C573          C  0.3400526  0.4154781  0.5462595    0.00000       Uiso       1.00
      C574          C  0.3210026  0.4158696  0.5462497    0.00000       Uiso       1.00
      C575          C  0.3190044  0.3963759  0.5427954    0.00000       Uiso       1.00
      C576          C  0.3372058  0.3767607  0.5402845    0.00000       Uiso       1.00
      C577          C  0.3572961  0.3764605  0.5424439    0.00000       Uiso       1.00
       O61          O  0.3797673  0.4121681  0.5434101    0.00000       Uiso       1.00
      H277          H  0.3408535  0.4305048  0.5480032    0.00000       Uiso       1.00
      H278          H  0.3078915  0.4315420  0.5487305    0.00000       Uiso       1.00
      H279          H  0.3353170  0.3613310  0.5352250    0.00000       Uiso       1.00
      C578          C  0.3949178  0.2424235  0.5429949    0.00000       Uiso       1.00
      C579          C  0.3959114  0.2612980  0.5441368    0.00000       Uiso       1.00
      C580          C  0.4154789  0.2618983  0.5463197    0.00000       Uiso       1.00
      C581          C  0.4158647  0.2805470  0.5463034    0.00000       Uiso       1.00
      C582          C  0.3963691  0.2985823  0.5428479    0.00000       Uiso       1.00
      C583          C  0.3767611  0.2974865  0.5403586    0.00000       Uiso       1.00
      C584          C  0.3764682  0.2798573  0.5425273    0.00000       Uiso       1.00
       O62          O  0.4121653  0.2226294  0.5434383    0.00000       Uiso       1.00
      H280          H  0.4305046  0.2478128  0.5480490    0.00000       Uiso       1.00
      H281          H  0.4315345  0.2804628  0.5487733    0.00000       Uiso       1.00
      H282          H  0.3613274  0.3097387  0.5353009    0.00000       Uiso       1.00
      C585          C  0.2424116  0.3767889  0.5429749    0.00000       Uiso       1.00
      C586          C  0.2612893  0.3580718  0.5441338    0.00000       Uiso       1.00
      C587          C  0.2618929  0.3401040  0.5463474    0.00000       Uiso       1.00
      C588          C  0.2805488  0.3210592  0.5463585    0.00000       Uiso       1.00
      C589          C  0.2985893  0.3190585  0.5429061    0.00000       Uiso       1.00
      C590          C  0.2974916  0.3372576  0.5403873    0.00000       Uiso       1.00
      C591          C  0.2798487  0.3573405  0.5425186    0.00000       Uiso       1.00
       O63          O  0.2226274  0.3797882  0.5434443    0.00000       Uiso       1.00
      H283          H  0.2477992  0.3409089  0.5480791    0.00000       Uiso       1.00
      H284          H  0.2804678  0.3079512  0.5488446    0.00000       Uiso       1.00
      H285          H  0.3097557  0.3353705  0.5353356    0.00000       Uiso       1.00
      C592          C  0.2415149  0.3941051  0.5401207    0.00000       Uiso       1.00
      C593          C  0.2598650  0.3945190  0.5395977    0.00000       Uiso       1.00
      C594          C  0.2590317  0.4125012  0.5372080    0.00000       Uiso       1.00
      C595          C  0.2778220  0.4129697  0.5375605    0.00000       Uiso       1.00
      C596          C  0.2982474  0.3960152  0.5415842    0.00000       Uiso       1.00
      C597          C  0.2988181  0.3782908  0.5444479    0.00000       Uiso       1.00
      C598          C  0.2796560  0.3764029  0.5418864    0.00000       Uiso       1.00
       O64          O  0.2210755  0.4106079  0.5384935    0.00000       Uiso       1.00
      H286          H  0.2436939  0.4261797  0.5349792    0.00000       Uiso       1.00
      H287          H  0.2761026  0.4268299  0.5348322    0.00000       Uiso       1.00
      H288          H  0.3144641  0.3664934  0.5499762    0.00000       Uiso       1.00
      C599          C  0.3756514  0.2415400  0.5401784    0.00000       Uiso       1.00
      C600          C  0.3563711  0.2598979  0.5396758    0.00000       Uiso       1.00
      C601          C  0.3368424  0.2590830  0.5373334    0.00000       Uiso       1.00
      C602          C  0.3179440  0.2778795  0.5377007    0.00000       Uiso       1.00
      C603          C  0.3184913  0.2982956  0.5416875    0.00000       Uiso       1.00
      C604          C  0.3385005  0.2988471  0.5445070    0.00000       Uiso       1.00
      C605          C  0.3569796  0.2796781  0.5419344    0.00000       Uiso       1.00
       O65          O  0.3779614  0.2211036  0.5385578    0.00000       Uiso       1.00
      H289          H  0.3362715  0.2437511  0.5351204    0.00000       Uiso       1.00
      H290          H  0.3030833  0.2761675  0.5350053    0.00000       Uiso       1.00
      H291          H  0.3401909  0.3144840  0.5500191    0.00000       Uiso       1.00
      C606          C  0.3940931  0.3756456  0.5401182    0.00000       Uiso       1.00
      C607          C  0.3945037  0.3563641  0.5396011    0.00000       Uiso       1.00
      C608          C  0.4125077  0.3368396  0.5372651    0.00000       Uiso       1.00
      C609          C  0.4129816  0.3179407  0.5376354    0.00000       Uiso       1.00
      C610          C  0.3959990  0.3184822  0.5416108    0.00000       Uiso       1.00
      C611          C  0.3782472  0.3384876  0.5444146    0.00000       Uiso       1.00
      C612          C  0.3763679  0.3569692  0.5418472    0.00000       Uiso       1.00
       O66          O  0.4106126  0.3779570  0.5385218    0.00000       Uiso       1.00
      H292          H  0.4261990  0.3362772  0.5350607    0.00000       Uiso       1.00
      H293          H  0.4268684  0.3030865  0.5349543    0.00000       Uiso       1.00
      H294          H  0.3664238  0.3401740  0.5499158    0.00000       Uiso       1.00
        B7          B  0.4013245  0.4012053  0.5406010    0.00000       Uiso       1.00
        B8          B  0.4012049  0.2092178  0.5406176    0.00000       Uiso       1.00
        B9          B  0.2092060  0.4013269  0.5405970    0.00000       Uiso       1.00
      C613          C  0.3949173  0.3767648  0.2287444    0.00000       Uiso       1.00
      C614          C  0.3959086  0.3580338  0.2098759    0.00000       Uiso       1.00
      C615          C  0.4154805  0.3400559  0.2092760    0.00000       Uiso       1.00
      C616          C  0.4158722  0.3210060  0.1906275    0.00000       Uiso       1.00
      C617          C  0.3963787  0.3190079  0.1725900    0.00000       Uiso       1.00
      C618          C  0.3767635  0.3372094  0.1736873    0.00000       Uiso       1.00
      C619          C  0.3764631  0.3572996  0.1913178    0.00000       Uiso       1.00
       O67          O  0.4121701  0.3797703  0.2485298    0.00000       Uiso       1.00
      H295          H  0.4305071  0.3408568  0.2233599    0.00000       Uiso       1.00
      H296          H  0.4315447  0.3078949  0.1907080    0.00000       Uiso       1.00
      H297          H  0.3613339  0.3353206  0.1614283    0.00000       Uiso       1.00
      C620          C  0.2424272  0.3949222  0.0943525    0.00000       Uiso       1.00
      C621          C  0.2613015  0.3959157  0.1130786    0.00000       Uiso       1.00
      C622          C  0.2619017  0.4154830  0.1310634    0.00000       Uiso       1.00
      C623          C  0.2805502  0.4158686  0.1501139    0.00000       Uiso       1.00
      C624          C  0.2985854  0.3963729  0.1521090    0.00000       Uiso       1.00
      C625          C  0.2974898  0.3767651  0.1338947    0.00000       Uiso       1.00
      C626          C  0.2798608  0.3764724  0.1138042    0.00000       Uiso       1.00
       O68          O  0.2226332  0.4121697  0.0913626    0.00000       Uiso       1.00
      H298          H  0.2478162  0.4305087  0.1302742    0.00000       Uiso       1.00
      H299          H  0.2804659  0.4315384  0.1632295    0.00000       Uiso       1.00
      H300          H  0.3097419  0.3613312  0.1357708    0.00000       Uiso       1.00
      C627          C  0.3767927  0.2424159  0.0762317    0.00000       Uiso       1.00
      C628          C  0.3580756  0.2612937  0.0752335    0.00000       Uiso       1.00
      C629          C  0.3401080  0.2618974  0.0556559    0.00000       Uiso       1.00
      C630          C  0.3210632  0.2805534  0.0552559    0.00000       Uiso       1.00
      C631          C  0.3190623  0.2985937  0.0747479    0.00000       Uiso       1.00
      C632          C  0.3372612  0.2974958  0.0943680    0.00000       Uiso       1.00
      C633          C  0.3573440  0.2798529  0.0946766    0.00000       Uiso       1.00
       O69          O  0.3797921  0.2226319  0.0589776    0.00000       Uiso       1.00
      H301          H  0.3409130  0.2478039  0.0406355    0.00000       Uiso       1.00
      H302          H  0.3079554  0.2804726  0.0395810    0.00000       Uiso       1.00
      H303          H  0.3353738  0.3097597  0.1097963    0.00000       Uiso       1.00
      C634          C  0.3941086  0.2415191  0.0955052    0.00000       Uiso       1.00
      C635          C  0.3945223  0.2598690  0.1147920    0.00000       Uiso       1.00
      C636          C  0.4125043  0.2590355  0.1343304    0.00000       Uiso       1.00
      C637          C  0.4129726  0.2778256  0.1532365    0.00000       Uiso       1.00
      C638          C  0.3960181  0.2982512  0.1526838    0.00000       Uiso       1.00
      C639          C  0.3782941  0.2988220  0.1326666    0.00000       Uiso       1.00
      C640          C  0.3764063  0.2796600  0.1141783    0.00000       Uiso       1.00
       O70          O  0.4106115  0.2210796  0.0931958    0.00000       Uiso       1.00
      H304          H  0.4261827  0.2436976  0.1348998    0.00000       Uiso       1.00
      H305          H  0.4268327  0.2761061  0.1681055    0.00000       Uiso       1.00
      H306          H  0.3664967  0.3144681  0.1309869    0.00000       Uiso       1.00
      C641          C  0.2415439  0.3756559  0.0770194    0.00000       Uiso       1.00
      C642          C  0.2599017  0.3563756  0.0765994    0.00000       Uiso       1.00
      C643          C  0.2590870  0.3368470  0.0585984    0.00000       Uiso       1.00
      C644          C  0.2778835  0.3179485  0.0581292    0.00000       Uiso       1.00
      C645          C  0.2982994  0.3184958  0.0751056    0.00000       Uiso       1.00
      C646          C  0.2988507  0.3385048  0.0928467    0.00000       Uiso       1.00
      C647          C  0.2796817  0.3569840  0.0947294    0.00000       Uiso       1.00
       O71          O  0.2211076  0.3779660  0.0605136    0.00000       Uiso       1.00
      H307          H  0.2437552  0.3362761  0.0449088    0.00000       Uiso       1.00
      H308          H  0.2761716  0.3030879  0.0442519    0.00000       Uiso       1.00
      H309          H  0.3144876  0.3401952  0.1046618    0.00000       Uiso       1.00
      C648          C  0.3756479  0.3940963  0.2296252    0.00000       Uiso       1.00
      C649          C  0.3563665  0.3945071  0.2112716    0.00000       Uiso       1.00
      C650          C  0.3368421  0.4125110  0.2120871    0.00000       Uiso       1.00
      C651          C  0.3179433  0.4129850  0.1932919    0.00000       Uiso       1.00
      C652          C  0.3184851  0.3960026  0.1728756    0.00000       Uiso       1.00
      C653          C  0.3384904  0.3782509  0.1723255    0.00000       Uiso       1.00
      C654          C  0.3569719  0.3763713  0.1914949    0.00000       Uiso       1.00
       O72          O  0.3779590  0.4106156  0.2500523    0.00000       Uiso       1.00
      H310          H  0.3362795  0.4262021  0.2274202    0.00000       Uiso       1.00
      H311          H  0.3030891  0.4268718  0.1950056    0.00000       Uiso       1.00
      H312          H  0.3401771  0.3664277  0.1566876    0.00000       Uiso       1.00
       B10          B  0.4012072  0.4013273  0.2619331    0.00000       Uiso       1.00
       B11          B  0.2092218  0.4012095  0.0698115    0.00000       Uiso       1.00
       B12          B  0.4013306  0.2092104  0.0699421    0.00000       Uiso       1.00
       B13          B  0.7385784  0.8725461  0.5985890    0.00000       Uiso       1.00
       B14          B  0.8725448  0.7385796  0.5985890    0.00000       Uiso       1.00
       B15          B  0.8725436  0.8725449  0.7325541    0.00000       Uiso       1.00
      C655          C  0.8091716  0.8283418  0.6234889    0.00000       Uiso       1.00
      C656          C  0.7711983  0.8476539  0.6052133    0.00000       Uiso       1.00
      H313          H  0.7881007  0.8151932  0.5893419    0.00000       Uiso       1.00
       O73          O  0.7512013  0.8500313  0.5882545    0.00000       Uiso       1.00
      C657          C  0.7896441  0.8288898  0.6046629    0.00000       Uiso       1.00
      C658          C  0.8476442  0.8091727  0.6427925    0.00000       Uiso       1.00
      C659          C  0.8659202  0.7711993  0.6234808    0.00000       Uiso       1.00
      H314          H  0.8817914  0.7881014  0.6559414    0.00000       Uiso       1.00
       O74          O  0.8828791  0.7512021  0.6211036    0.00000       Uiso       1.00
      C660          C  0.8664704  0.7896450  0.6422448    0.00000       Uiso       1.00
      C661          C  0.8283402  0.8476453  0.6619613    0.00000       Uiso       1.00
      C662          C  0.8476518  0.8659207  0.6999344    0.00000       Uiso       1.00
      H315          H  0.8151911  0.8817925  0.6830322    0.00000       Uiso       1.00
       O75          O  0.8500288  0.8828796  0.7199315    0.00000       Uiso       1.00
      C663          C  0.8288878  0.8664714  0.6814888    0.00000       Uiso       1.00
      C664          C  0.8283405  0.8091729  0.6234889    0.00000       Uiso       1.00
      C665          C  0.8476527  0.7711995  0.6052133    0.00000       Uiso       1.00
       O76          O  0.8500300  0.7512024  0.5882545    0.00000       Uiso       1.00
      H316          H  0.8151919  0.7881020  0.5893419    0.00000       Uiso       1.00
      C666          C  0.8288885  0.7896453  0.6046629    0.00000       Uiso       1.00
      C667          C  0.8091715  0.8476455  0.6427925    0.00000       Uiso       1.00
      C668          C  0.7711981  0.8659214  0.6234808    0.00000       Uiso       1.00
      H317          H  0.7881001  0.8817927  0.6559414    0.00000       Uiso       1.00
       O77          O  0.7512009  0.8828804  0.6211036    0.00000       Uiso       1.00
      C669          C  0.7896438  0.8664717  0.6422448    0.00000       Uiso       1.00
      C670          C  0.8476440  0.8283415  0.6619613    0.00000       Uiso       1.00
      C671          C  0.8659194  0.8476531  0.6999344    0.00000       Uiso       1.00
      H318          H  0.8817911  0.8151924  0.6830322    0.00000       Uiso       1.00
       O78          O  0.8828782  0.8500301  0.7199315    0.00000       Uiso       1.00
      C672          C  0.8664700  0.8288891  0.6814888    0.00000       Uiso       1.00
      C673          C  0.9282007  0.3949180  0.2287447    0.00000       Uiso       1.00
      C674          C  0.9270722  0.3959093  0.2098761    0.00000       Uiso       1.00
      C675          C  0.9248783  0.4154812  0.2092763    0.00000       Uiso       1.00
      C676          C  0.9248883  0.4158729  0.1906278    0.00000       Uiso       1.00
      C677          C  0.9283428  0.3963793  0.1725903    0.00000       Uiso       1.00
      C678          C  0.9308537  0.3767641  0.1736876    0.00000       Uiso       1.00
      C679          C  0.9286941  0.3764638  0.1913181    0.00000       Uiso       1.00
       O79          O  0.9277273  0.4121708  0.2485301    0.00000       Uiso       1.00
      H319          H  0.9231344  0.4305078  0.2233602    0.00000       Uiso       1.00
      H320          H  0.9224074  0.4315453  0.1907083    0.00000       Uiso       1.00
      H321          H  0.9359134  0.3613345  0.1614286    0.00000       Uiso       1.00
      C680          C  0.9281440  0.2424276  0.0943528    0.00000       Uiso       1.00
      C681          C  0.9270018  0.2613020  0.1130788    0.00000       Uiso       1.00
      C682          C  0.9248188  0.2619022  0.1310636    0.00000       Uiso       1.00
      C683          C  0.9248350  0.2805507  0.1501141    0.00000       Uiso       1.00
      C684          C  0.9282904  0.2985859  0.1521093    0.00000       Uiso       1.00
      C685          C  0.9307799  0.2974903  0.1338950    0.00000       Uiso       1.00
      C686          C  0.9286115  0.2798613  0.1138044    0.00000       Uiso       1.00
       O80          O  0.9277006  0.2226336  0.0913629    0.00000       Uiso       1.00
      H322          H  0.9230895  0.2478166  0.1302745    0.00000       Uiso       1.00
      H323          H  0.9223648  0.2804664  0.1632298    0.00000       Uiso       1.00
      H324          H  0.9358377  0.3097425  0.1357711    0.00000       Uiso       1.00
      C687          C  0.9281641  0.3767933  0.0762320    0.00000       Uiso       1.00
      C688          C  0.9270052  0.3580762  0.0752338    0.00000       Uiso       1.00
      C689          C  0.9247919  0.3401086  0.0556562    0.00000       Uiso       1.00
      C690          C  0.9247806  0.3210638  0.0552562    0.00000       Uiso       1.00
      C691          C  0.9282330  0.3190629  0.0747482    0.00000       Uiso       1.00
      C692          C  0.9307516  0.3372618  0.0943682    0.00000       Uiso       1.00
      C693          C  0.9286203  0.3573447  0.0946769    0.00000       Uiso       1.00
       O81          O  0.9276950  0.3797927  0.0589779    0.00000       Uiso       1.00
      H325          H  0.9230602  0.3409136  0.0406357    0.00000       Uiso       1.00
      H326          H  0.9222947  0.3079559  0.0395813    0.00000       Uiso       1.00
      H327          H  0.9358032  0.3353744  0.1097966    0.00000       Uiso       1.00
      C694          C  0.9310182  0.3941092  0.0955055    0.00000       Uiso       1.00
      C695          C  0.9315410  0.3945230  0.1147923    0.00000       Uiso       1.00
      C696          C  0.9339305  0.4125050  0.1343306    0.00000       Uiso       1.00
      C697          C  0.9335778  0.4129733  0.1532368    0.00000       Uiso       1.00
      C698          C  0.9295541  0.3960188  0.1526840    0.00000       Uiso       1.00
      C699          C  0.9266906  0.3782947  0.1326669    0.00000       Uiso       1.00
      C700          C  0.9292523  0.3764069  0.1141786    0.00000       Uiso       1.00
       O82          O  0.9326454  0.4106121  0.0931961    0.00000       Uiso       1.00
      H328          H  0.9361594  0.4261834  0.1349000    0.00000       Uiso       1.00
      H329          H  0.9363060  0.4268334  0.1681058    0.00000       Uiso       1.00
      H330          H  0.9211622  0.3664973  0.1309872    0.00000       Uiso       1.00
      C701          C  0.9309607  0.2415443  0.0770196    0.00000       Uiso       1.00
      C702          C  0.9314632  0.2599021  0.0765996    0.00000       Uiso       1.00
      C703          C  0.9338058  0.2590875  0.0585987    0.00000       Uiso       1.00
      C704          C  0.9334386  0.2778840  0.0581295    0.00000       Uiso       1.00
      C705          C  0.9294515  0.2982999  0.0751059    0.00000       Uiso       1.00
      C706          C  0.9266320  0.2988513  0.0928470    0.00000       Uiso       1.00
      C707          C  0.9292045  0.2796822  0.0947297    0.00000       Uiso       1.00
       O83          O  0.9325814  0.2211081  0.0605139    0.00000       Uiso       1.00
      H331          H  0.9360191  0.2437557  0.0449090    0.00000       Uiso       1.00
      H332          H  0.9361341  0.2761721  0.0442522    0.00000       Uiso       1.00
      H333          H  0.9211196  0.3144882  0.1046620    0.00000       Uiso       1.00
      C708          C  0.9310195  0.3756485  0.2296255    0.00000       Uiso       1.00
      C709          C  0.9315367  0.3563671  0.2112719    0.00000       Uiso       1.00
      C710          C  0.9338728  0.3368427  0.2120874    0.00000       Uiso       1.00
      C711          C  0.9335026  0.3179439  0.1932922    0.00000       Uiso       1.00
      C712          C  0.9295273  0.3184856  0.1728758    0.00000       Uiso       1.00
      C713          C  0.9267235  0.3384911  0.1723258    0.00000       Uiso       1.00
      C714          C  0.9292907  0.3569725  0.1914952    0.00000       Uiso       1.00
       O84          O  0.9326157  0.3779597  0.2500526    0.00000       Uiso       1.00
      H334          H  0.9360771  0.3362800  0.2274204    0.00000       Uiso       1.00
      H335          H  0.9361837  0.3030896  0.1950059    0.00000       Uiso       1.00
      H336          H  0.9212224  0.3401777  0.1566879    0.00000       Uiso       1.00
       B16          B  0.9305364  0.4012079  0.2619334    0.00000       Uiso       1.00
       B17          B  0.9305215  0.2092222  0.0698117    0.00000       Uiso       1.00
       B18          B  0.9305421  0.4013313  0.0699423    0.00000       Uiso       1.00
       B19          B  0.8725416  0.8725427  0.0125342    0.00000       Uiso       1.00
       B20          B  0.8725416  0.7385761  0.0125342    0.00000       Uiso       1.00
       B21          B  0.7385753  0.8725426  0.0125342    0.00000       Uiso       1.00
      C715          C  0.8476415  0.8283387  0.0140237    0.00000       Uiso       1.00
      C716          C  0.8659172  0.8476505  0.0136378    0.00000       Uiso       1.00
      H337          H  0.8817887  0.8151897  0.0139508    0.00000       Uiso       1.00
       O85          O  0.8828762  0.8500278  0.0129767    0.00000       Uiso       1.00
      C717          C  0.8664677  0.8288864  0.0138699    0.00000       Uiso       1.00
      C718          C  0.8283377  0.8091698  0.0140237    0.00000       Uiso       1.00
      C719          C  0.8476496  0.7711962  0.0136378    0.00000       Uiso       1.00
      H338          H  0.8151888  0.7880985  0.0139508    0.00000       Uiso       1.00
       O86          O  0.8500268  0.7511989  0.0129768    0.00000       Uiso       1.00
      C720          C  0.8288854  0.7896419  0.0138699    0.00000       Uiso       1.00
      C721          C  0.8091688  0.8476425  0.0140237    0.00000       Uiso       1.00
      C722          C  0.7711953  0.8659182  0.0136378    0.00000       Uiso       1.00
      H339          H  0.7880975  0.8817898  0.0139508    0.00000       Uiso       1.00
       O87          O  0.7511980  0.8828772  0.0129768    0.00000       Uiso       1.00
      C723          C  0.7896410  0.8664687  0.0138699    0.00000       Uiso       1.00
      C724          C  0.8476415  0.8091698  0.0140237    0.00000       Uiso       1.00
      C725          C  0.8659172  0.7711962  0.0136378    0.00000       Uiso       1.00
       O88          O  0.8828762  0.7511989  0.0129767    0.00000       Uiso       1.00
      H340          H  0.8817888  0.7880985  0.0139508    0.00000       Uiso       1.00
      C726          C  0.8664677  0.7896419  0.0138699    0.00000       Uiso       1.00
      C727          C  0.8283377  0.8476425  0.0140237    0.00000       Uiso       1.00
      C728          C  0.8476496  0.8659182  0.0136378    0.00000       Uiso       1.00
      H341          H  0.8151887  0.8817898  0.0139508    0.00000       Uiso       1.00
       O89          O  0.8500267  0.8828772  0.0129767    0.00000       Uiso       1.00
      C729          C  0.8288854  0.8664687  0.0138699    0.00000       Uiso       1.00
      C730          C  0.8091688  0.8283387  0.0140237    0.00000       Uiso       1.00
      C731          C  0.7711953  0.8476505  0.0136378    0.00000       Uiso       1.00
      H342          H  0.7880975  0.8151897  0.0139508    0.00000       Uiso       1.00
       O90          O  0.7511981  0.8500278  0.0129768    0.00000       Uiso       1.00
      C732          C  0.7896411  0.8288864  0.0138699    0.00000       Uiso       1.00
      C733          C  0.3949101  0.9281945  0.0943693    0.00000       Uiso       1.00
      C734          C  0.3959011  0.9270656  0.1131003    0.00000       Uiso       1.00
      C735          C  0.4154729  0.9248716  0.1310780    0.00000       Uiso       1.00
      C736          C  0.4158642  0.9248812  0.1501278    0.00000       Uiso       1.00
      C737          C  0.3963704  0.9283355  0.1521261    0.00000       Uiso       1.00
      C738          C  0.3767555  0.9308466  0.1339248    0.00000       Uiso       1.00
      C739          C  0.3764555  0.9286873  0.1138346    0.00000       Uiso       1.00
       O91          O  0.4121632  0.9277214  0.0913637    0.00000       Uiso       1.00
      H343          H  0.4304996  0.9231278  0.1302770    0.00000       Uiso       1.00
      H344          H  0.4315365  0.9224003  0.1632388    0.00000       Uiso       1.00
      H345          H  0.3613257  0.9359061  0.1358137    0.00000       Uiso       1.00
      C740          C  0.2424190  0.9281366  0.0762133    0.00000       Uiso       1.00
      C741          C  0.2612935  0.9269947  0.0752197    0.00000       Uiso       1.00
      C742          C  0.2618940  0.9248120  0.0556524    0.00000       Uiso       1.00
      C743          C  0.2805427  0.9248284  0.0552666    0.00000       Uiso       1.00
      C744          C  0.2985777  0.9282838  0.0747621    0.00000       Uiso       1.00
      C745          C  0.2974818  0.9307728  0.0943698    0.00000       Uiso       1.00
      C746          C  0.2798526  0.9286041  0.0946627    0.00000       Uiso       1.00
       O92          O  0.2226251  0.9276935  0.0589660    0.00000       Uiso       1.00
      H346          H  0.2478087  0.9230829  0.0406269    0.00000       Uiso       1.00
      H347          H  0.2804587  0.9223585  0.0395969    0.00000       Uiso       1.00
      H348          H  0.3097338  0.9358305  0.1098035    0.00000       Uiso       1.00
      C747          C  0.3767829  0.9281552  0.2287181    0.00000       Uiso       1.00
      C748          C  0.3580660  0.9269965  0.2098406    0.00000       Uiso       1.00
      C749          C  0.3400983  0.9247829  0.2092370    0.00000       Uiso       1.00
      C750          C  0.3210537  0.9247720  0.1905812    0.00000       Uiso       1.00
      C751          C  0.3190531  0.9282246  0.1725410    0.00000       Uiso       1.00
      C752          C  0.3372521  0.9307435  0.1736387    0.00000       Uiso       1.00
      C753          C  0.3573348  0.9286120  0.1912814    0.00000       Uiso       1.00
       O93          O  0.3797820  0.9276858  0.2485022    0.00000       Uiso       1.00
      H349          H  0.3409030  0.9230511  0.2233306    0.00000       Uiso       1.00
      H350          H  0.3079456  0.9222859  0.1906623    0.00000       Uiso       1.00
      H351          H  0.3353650  0.9357952  0.1613747    0.00000       Uiso       1.00
      C754          C  0.3940990  0.9310095  0.2296149    0.00000       Uiso       1.00
      C755          C  0.3945131  0.9315327  0.2112649    0.00000       Uiso       1.00
      C756          C  0.4124952  0.9339225  0.2120983    0.00000       Uiso       1.00
      C757          C  0.4129639  0.9335701  0.1933081    0.00000       Uiso       1.00
      C758          C  0.3960096  0.9295465  0.1728829    0.00000       Uiso       1.00
      C759          C  0.3782853  0.9266828  0.1723122    0.00000       Uiso       1.00
      C760          C  0.3763973  0.9292442  0.1914741    0.00000       Uiso       1.00
       O94          O  0.4106016  0.9326366  0.2500541    0.00000       Uiso       1.00
      H352          H  0.4261735  0.9361510  0.2274359    0.00000       Uiso       1.00
      H353          H  0.4268240  0.9362984  0.1950275    0.00000       Uiso       1.00
      H354          H  0.3664880  0.9211546  0.1566663    0.00000       Uiso       1.00
      C761          C  0.2415353  0.9309531  0.0954796    0.00000       Uiso       1.00
      C762          C  0.2598930  0.9314554  0.1147597    0.00000       Uiso       1.00
      C763          C  0.2590779  0.9337977  0.1342882    0.00000       Uiso       1.00
      C764          C  0.2778743  0.9334303  0.1531865    0.00000       Uiso       1.00
      C765          C  0.2982903  0.9294434  0.1526391    0.00000       Uiso       1.00
      C766          C  0.2988420  0.9266241  0.1326301    0.00000       Uiso       1.00
      C767          C  0.2796732  0.9291969  0.1141512    0.00000       Uiso       1.00
       O95          O  0.2210990  0.9325736  0.0931696    0.00000       Uiso       1.00
      H355          H  0.2437460  0.9360108  0.1348592    0.00000       Uiso       1.00
      H356          H  0.2761621  0.9361255  0.1680471    0.00000       Uiso       1.00
      H357          H  0.3144791  0.9211118  0.1309397    0.00000       Uiso       1.00
      C768          C  0.3756409  0.9310134  0.0770380    0.00000       Uiso       1.00
      C769          C  0.3563594  0.9315305  0.0766274    0.00000       Uiso       1.00
      C770          C  0.3368351  0.9338667  0.0586236    0.00000       Uiso       1.00
      C771          C  0.3179362  0.9334964  0.0581498    0.00000       Uiso       1.00
      C772          C  0.3184776  0.9295207  0.0751322    0.00000       Uiso       1.00
      C773          C  0.3384828  0.9267169  0.0928837    0.00000       Uiso       1.00
      C774          C  0.3569643  0.9292842  0.0947631    0.00000       Uiso       1.00
       O96          O  0.3779525  0.9326100  0.0605187    0.00000       Uiso       1.00
      H358          H  0.3362728  0.9360713  0.0449325    0.00000       Uiso       1.00
      H359          H  0.3030821  0.9361777  0.0442631    0.00000       Uiso       1.00
      H360          H  0.3401693  0.9212155  0.1047070    0.00000       Uiso       1.00
       B22          B  0.4012006  0.9305307  0.0698068    0.00000       Uiso       1.00
       B23          B  0.2092134  0.9305140  0.0699263    0.00000       Uiso       1.00
       B24          B  0.4013205  0.9305329  0.2619234    0.00000       Uiso       1.00
